<connections>

	<!-- begin Junction Vesterbro osteralle hobro kongch -->
	<!-- Begin Delete invalid connections FIX -->
	<delete from="7_N.-60" to="7_S" />
	<delete from="6_O.-30" to="6_V" />
	<!-- End Delete invalid connections FIX -->

	<!-- from kongch -->
	<connection from="2_O.-60" to="4_S"  fromLane="0" toLane="0"/>
	<connection from="2_O.-60" to="3_O"  fromLane="1" toLane="0"/>
	<connection from="2_O.-60" to="3_O"  fromLane="2" toLane="1"/>
	<connection from="2_O.-60" to="1_N_1"  fromLane="3" toLane="0"/>
	<!-- from vesterbro -->
	<connection from="1_S_1.-60" to="2_V"  fromLane="0" toLane="0"/>
	<connection from="1_S_1.-60" to="4_S"  fromLane="1" toLane="0"/>
	<connection from="1_S_1.-60" to="4_S"  fromLane="2" toLane="1"/>
	<connection from="1_S_1.-60" to="3_O"  fromLane="3" toLane="0"/>
	<!-- from osteralle -->
	<connection from="3_V.-60" to="1_N_1"  fromLane="0" toLane="0"/>
	<connection from="3_V.-60" to="2_V"  fromLane="1" toLane="0"/>
	<connection from="3_V.-60" to="2_V"  fromLane="2" toLane="1"/>
	<connection from="3_V.-60" to="4_S"  fromLane="3" toLane="0"/>
	<!-- from hobro -->
	<connection from="4_N.-60" to="3_O"  fromLane="0" toLane="0"/>
	<connection from="4_N.-60" to="1_N_1"  fromLane="1" toLane="0"/>
	<connection from="4_N.-60" to="1_N_1"  fromLane="2" toLane="1"/>
	<connection from="4_N.-60" to="2_V"  fromLane="3" toLane="0"/>

	<!-- fix turninlane connection -->
	<delete from="4_N" to="4_N.-60"  fromLane="0" toLane="3"/>
	<delete from="4_N" to="4_N.-60"  fromLane="0" toLane="2"/>
	<delete from="4_N" to="4_N.-60"  fromLane="0" toLane="1"/>
	<delete from="4_N" to="4_N.-60"  fromLane="0" toLane="0"/>
	<delete from="4_N" to="4_N.-60"  fromLane="1" toLane="3"/>
	<delete from="4_N" to="4_N.-60"  fromLane="1" toLane="2"/>
	<delete from="4_N" to="4_N.-60"  fromLane="1" toLane="1"/>
	<delete from="4_N" to="4_N.-60"  fromLane="1" toLane="0"/>

	<connection from="4_N" to="4_N.-60"  fromLane="0" toLane="0"/>
	<connection from="4_N" to="4_N.-60"  fromLane="0" toLane="1"/>
	<connection from="4_N" to="4_N.-60"  fromLane="1" toLane="2"/>
	<connection from="4_N" to="4_N.-60"  fromLane="1" toLane="3"/>

	<!-- End Junction Vesterbro osteralle hobro kongch -->

	<!-- Begin Connection Hobro_1 to hobro_2 -->
	<connection from="5_N" to="4_N"  fromLane="0" toLane="0"/>
	<connection from="5_N" to="4_N"  fromLane="1" toLane="1"/>

	<connection from="4_S" to="5_S"  fromLane="0" toLane="0"/>
	<connection from="4_S" to="5_S"  fromLane="1" toLane="1"/>
	<!-- End Connection Hobro_1 to hobro_2 -->

	<!-- Begin Junction hobro sonderskov -->

	<connection from="5_S.-30" to="6_V"  fromLane="0" toLane="0"/>
	<connection from="5_S.-30" to="7_S"  fromLane="1" toLane="0"/>
	<connection from="5_S.-30" to="7_S"  fromLane="2" toLane="1"/>	

	<delete from="6_O.-30" to="7_S"  fromLane="0" toLane="1"/>
	<delete from="6_O.-30" to="5_N"  fromLane="1" toLane="1"/>
	<connection from="6_O.-30" to="7_S"  fromLane="0" toLane="0"/>	
	<connection from="6_O.-30" to="5_N"  fromLane="1" toLane="0"/>

	<connection from="7_N.-60" to="5_N"  fromLane="0" toLane="0"/>
	<connection from="7_N.-60" to="5_N"  fromLane="1" toLane="1"/>	
	<connection from="7_N.-60" to="6_V"  fromLane="2" toLane="0"/>

	<!-- End Junction hobro sonderskov-->


	<!-- Begin Junction Hobrovej_MollerPark -->


	<!-- fix turninlane connection -->
	<delete from="11_S" to="11_S.-50"  fromLane="0" toLane="0"/>
	<delete from="11_S" to="11_S.-50"  fromLane="1" toLane="0"/>
	<delete from="11_S" to="11_S.-50"  fromLane="1" toLane="1"/>



	<connection from="11_S.-50" to="12_V"  fromLane="0" toLane="0"/>
	<connection from="11_S.-50" to="13_S"  fromLane="1" toLane="0"/>
	<connection from="11_S.-50" to="13_S"  fromLane="2" toLane="1"/>	

	<connection from="12_O" to="11_N"  fromLane="0" toLane="0"/>	
	<connection from="12_O" to="13_S"  fromLane="0" toLane="0"/>

	<connection from="13_N.-40" to="11_N"  fromLane="0" toLane="0"/>	
	<connection from="13_N.-40" to="11_N"  fromLane="1" toLane="1"/>
	<connection from="13_N.-40" to="12_V"  fromLane="2" toLane="0"/>
	<!-- End Junction Hobrovej_MollerPark-->

	<connection from="13_S" to="15_S"  fromLane="0" toLane="0"/>
	<connection from="13_S" to="15_S"  fromLane="1" toLane="0"/>
	<connection from="13_S" to="14_V"  fromLane="1" toLane="0"/>
	<!-- End Junction Hobrovej_LilleHobro -->

	<!-- Begin Junction hobrovej_VestreAlle_NyKervej -->

	<!-- from hobro N -->
	<connection from="17_S.-60" to="19_V"  fromLane="0" toLane="0"/>
	<connection from="17_S.-60" to="18_S"  fromLane="1" toLane="0"/>
	<connection from="17_S.-60" to="18_S"  fromLane="2" toLane="1"/>
	<connection from="17_S.-60" to="20_O"  fromLane="3" toLane="0"/>

	<!-- from Hobro S -->
	<connection from="18_N.-60" to="20_O"  fromLane="0" toLane="0"/>
	<connection from="18_N.-60" to="17_N"  fromLane="1" toLane="0"/>
	<connection from="18_N.-60" to="17_N"  fromLane="2" toLane="1"/>
	<connection from="18_N.-60" to="19_V"  fromLane="3" toLane="0"/>
	<!-- from VesterAlle -->
	<connection from="19_O.-60" to="18_S"  fromLane="0" toLane="0"/>
	<connection from="19_O.-60" to="20_O"  fromLane="1" toLane="0"/>
	<connection from="19_O.-60" to="17_N"  fromLane="2" toLane="0"/>
	<!-- from nykaer -->
	<connection from="20_V" to="17_N"  fromLane="0" toLane="0"/>
	<connection from="20_V" to="19_V"  fromLane="1" toLane="0"/>
	<connection from="20_V" to="18_S"  fromLane="2" toLane="0"/>

	<!-- End Junction hobrovej_VestreAlle_NyKervej -->
</connections>
