<?xml version="1.0" encoding="UTF-8"?>

<!-- generated on Tue Sep 25 13:30:08 2012 by SUMO netconvert Version 0.15.0
<?xml version="1.0" encoding="UTF-8"?>

<configuration xmlns:xsi="http://www.w3.org/2001/XMLSchema-instance" xsi:noNamespaceSchemaLocation="http://sumo.sf.net/xsd/netconvertConfiguration.xsd">

    <input>
        <sumo-net-file value="Data.net.xml"/>
    </input>

    <output>
        <plain-output-prefix value="test"/>
    </output>

    <processing>
        <no-turnarounds value="true"/>
        <offset.disable-normalization value="true"/>
    </processing>

</configuration>
-->

<tlLogics version="0.13" xmlns:xsi="http://www.w3.org/2001/XMLSchema-instance" xsi:noNamespaceSchemaLocation="http://sumo.sf.net/xsd/tllogic_file.xsd">
	<tlLogic id="cluster_Ju_Vesterbro_Ostre_KongCh_hobro_NO_Ju_Vesterbro_Ostre_KongCh_hobro_NV_Ju_Vesterbro_Ostre_KongCh_hobro_SO_Ju_Vesterbro_Ostre_KongCh_hobro_SV" type="static" programID="0" offset="0">
		<phase duration="32" state="ggggrrrrrrrrgggg"/> <!-- 2 -->
		<phase duration="4"  state="yyygrrrrrrrryyyg"/>
		<phase duration="6"  state="rrrGrrrrrrrrrrrG"/>
		<phase duration="4"  state="rrryrrrrrrrrrrry"/>
		<phase duration="2"  state="rrrryyyyyyyyrrrr"/>
		<phase duration="32" state="rrrrggggggggrrrr"/> <!-- 3 -->
		<phase duration="4"  state="rrrryyygyyygrrrr"/>
		<phase duration="2"  state="yrrrrrrgrrrgyrrr"/>
		<phase duration="8" state="GrrrrrrGrrrGGrrr"/>
		<phase duration="4"  state="GrrrrrryrrryGrrr"/>
		<phase duration="2"  state="gyyyrrrrrrrrgyyy"/>

	</tlLogic>

	<!-- from vesterbro -->
    <connection from="1_S_1.-60" to="2_V" fromLane="0" toLane="0" tl="cluster_Ju_Vesterbro_Ostre_KongCh_hobro_NO_Ju_Vesterbro_Ostre_KongCh_hobro_NV_Ju_Vesterbro_Ostre_KongCh_hobro_SO_Ju_Vesterbro_Ostre_KongCh_hobro_SV" linkIndex="0"/>
    <connection from="1_S_1.-60" to="4_S" fromLane="1" toLane="0" tl="cluster_Ju_Vesterbro_Ostre_KongCh_hobro_NO_Ju_Vesterbro_Ostre_KongCh_hobro_NV_Ju_Vesterbro_Ostre_KongCh_hobro_SO_Ju_Vesterbro_Ostre_KongCh_hobro_SV" linkIndex="1"/>
    <connection from="1_S_1.-60" to="4_S" fromLane="2" toLane="1" tl="cluster_Ju_Vesterbro_Ostre_KongCh_hobro_NO_Ju_Vesterbro_Ostre_KongCh_hobro_NV_Ju_Vesterbro_Ostre_KongCh_hobro_SO_Ju_Vesterbro_Ostre_KongCh_hobro_SV" linkIndex="2"/>
    <connection from="1_S_1.-60" to="3_O" fromLane="3" toLane="0" tl="cluster_Ju_Vesterbro_Ostre_KongCh_hobro_NO_Ju_Vesterbro_Ostre_KongCh_hobro_NV_Ju_Vesterbro_Ostre_KongCh_hobro_SO_Ju_Vesterbro_Ostre_KongCh_hobro_SV" linkIndex="3"/>
    
    <!-- from kongch -->
    <connection from="2_O.-60" to="4_S" fromLane="0" toLane="0" tl="cluster_Ju_Vesterbro_Ostre_KongCh_hobro_NO_Ju_Vesterbro_Ostre_KongCh_hobro_NV_Ju_Vesterbro_Ostre_KongCh_hobro_SO_Ju_Vesterbro_Ostre_KongCh_hobro_SV" linkIndex="4"/>
    <connection from="2_O.-60" to="3_O" fromLane="1" toLane="0" tl="cluster_Ju_Vesterbro_Ostre_KongCh_hobro_NO_Ju_Vesterbro_Ostre_KongCh_hobro_NV_Ju_Vesterbro_Ostre_KongCh_hobro_SO_Ju_Vesterbro_Ostre_KongCh_hobro_SV" linkIndex="5"/>
    <connection from="2_O.-60" to="3_O" fromLane="2" toLane="1" tl="cluster_Ju_Vesterbro_Ostre_KongCh_hobro_NO_Ju_Vesterbro_Ostre_KongCh_hobro_NV_Ju_Vesterbro_Ostre_KongCh_hobro_SO_Ju_Vesterbro_Ostre_KongCh_hobro_SV" linkIndex="6"/>
    <connection from="2_O.-60" to="1_N_1" fromLane="3" toLane="0" tl="cluster_Ju_Vesterbro_Ostre_KongCh_hobro_NO_Ju_Vesterbro_Ostre_KongCh_hobro_NV_Ju_Vesterbro_Ostre_KongCh_hobro_SO_Ju_Vesterbro_Ostre_KongCh_hobro_SV" linkIndex="7"/>

	<!-- from osteralle -->
	<connection from="3_V.-60" to="1_N_1" fromLane="0" toLane="0" tl="cluster_Ju_Vesterbro_Ostre_KongCh_hobro_NO_Ju_Vesterbro_Ostre_KongCh_hobro_NV_Ju_Vesterbro_Ostre_KongCh_hobro_SO_Ju_Vesterbro_Ostre_KongCh_hobro_SV" linkIndex="8"/>
	<connection from="3_V.-60" to="2_V" fromLane="1" toLane="0" tl="cluster_Ju_Vesterbro_Ostre_KongCh_hobro_NO_Ju_Vesterbro_Ostre_KongCh_hobro_NV_Ju_Vesterbro_Ostre_KongCh_hobro_SO_Ju_Vesterbro_Ostre_KongCh_hobro_SV" linkIndex="9"/>
	<connection from="3_V.-60" to="2_V" fromLane="2" toLane="1" tl="cluster_Ju_Vesterbro_Ostre_KongCh_hobro_NO_Ju_Vesterbro_Ostre_KongCh_hobro_NV_Ju_Vesterbro_Ostre_KongCh_hobro_SO_Ju_Vesterbro_Ostre_KongCh_hobro_SV" linkIndex="10"/>
	<connection from="3_V.-60" to="4_S" fromLane="3" toLane="0" tl="cluster_Ju_Vesterbro_Ostre_KongCh_hobro_NO_Ju_Vesterbro_Ostre_KongCh_hobro_NV_Ju_Vesterbro_Ostre_KongCh_hobro_SO_Ju_Vesterbro_Ostre_KongCh_hobro_SV" linkIndex="11"/>
	
	<!-- from hobro -->
	<connection from="4_N.-60" to="3_O" fromLane="0" toLane="0" tl="cluster_Ju_Vesterbro_Ostre_KongCh_hobro_NO_Ju_Vesterbro_Ostre_KongCh_hobro_NV_Ju_Vesterbro_Ostre_KongCh_hobro_SO_Ju_Vesterbro_Ostre_KongCh_hobro_SV" linkIndex="12"/>
	<connection from="4_N.-60" to="1_N_1" fromLane="1" toLane="0" tl="cluster_Ju_Vesterbro_Ostre_KongCh_hobro_NO_Ju_Vesterbro_Ostre_KongCh_hobro_NV_Ju_Vesterbro_Ostre_KongCh_hobro_SO_Ju_Vesterbro_Ostre_KongCh_hobro_SV" linkIndex="13"/>
	<connection from="4_N.-60" to="1_N_1" fromLane="2" toLane="1" tl="cluster_Ju_Vesterbro_Ostre_KongCh_hobro_NO_Ju_Vesterbro_Ostre_KongCh_hobro_NV_Ju_Vesterbro_Ostre_KongCh_hobro_SO_Ju_Vesterbro_Ostre_KongCh_hobro_SV" linkIndex="14"/>
	<connection from="4_N.-60" to="2_V" fromLane="3" toLane="0" tl="cluster_Ju_Vesterbro_Ostre_KongCh_hobro_NO_Ju_Vesterbro_Ostre_KongCh_hobro_NV_Ju_Vesterbro_Ostre_KongCh_hobro_SO_Ju_Vesterbro_Ostre_KongCh_hobro_SV" linkIndex="15"/>

	
	<!-- Hobrovej Sønderskov vej -->
	<tlLogic id="cluster_Ju_Hobrovej_sonderSkov_O_Ju_Hobrovej_sonderSkov_OS_Ju_Hobrovej_sonderSkov_V_Ju_Hobrovej_sonderSkov_VS" type="static" programID="0" offset="0">
		<phase duration="200" state="gggrrggg"/> <!-- 1 -->
		<phase duration="4"  state="yyyrryyy"/>
		<phase duration="2"  state="rrryyrrr"/>
		<phase duration="15" state="rrrggrrr"/> <!-- 3 -->
		<phase duration="4"  state="rrryyrrr"/>
		<phase duration="2"  state="yyyrryyy"/>	
	</tlLogic>

    <connection from="5_S.-30" to="6_V" fromLane="0" toLane="0" tl="cluster_Ju_Hobrovej_sonderSkov_O_Ju_Hobrovej_sonderSkov_OS_Ju_Hobrovej_sonderSkov_V_Ju_Hobrovej_sonderSkov_VS" linkIndex="0"/>
    <connection from="5_S.-30" to="7_S" fromLane="1" toLane="0" tl="cluster_Ju_Hobrovej_sonderSkov_O_Ju_Hobrovej_sonderSkov_OS_Ju_Hobrovej_sonderSkov_V_Ju_Hobrovej_sonderSkov_VS" linkIndex="1"/>
    <connection from="5_S.-30" to="7_S" fromLane="2" toLane="1" tl="cluster_Ju_Hobrovej_sonderSkov_O_Ju_Hobrovej_sonderSkov_OS_Ju_Hobrovej_sonderSkov_V_Ju_Hobrovej_sonderSkov_VS" linkIndex="2"/>
    
    <connection from="6_O.-30" to="7_S" fromLane="0" toLane="0" tl="cluster_Ju_Hobrovej_sonderSkov_O_Ju_Hobrovej_sonderSkov_OS_Ju_Hobrovej_sonderSkov_V_Ju_Hobrovej_sonderSkov_VS" linkIndex="3"/>
    <connection from="6_O.-30" to="5_N" fromLane="1" toLane="0" tl="cluster_Ju_Hobrovej_sonderSkov_O_Ju_Hobrovej_sonderSkov_OS_Ju_Hobrovej_sonderSkov_V_Ju_Hobrovej_sonderSkov_VS" linkIndex="4"/>
    
    <connection from="7_N.-60" to="5_N" fromLane="0" toLane="0" tl="cluster_Ju_Hobrovej_sonderSkov_O_Ju_Hobrovej_sonderSkov_OS_Ju_Hobrovej_sonderSkov_V_Ju_Hobrovej_sonderSkov_VS" linkIndex="5"/>
    <connection from="7_N.-60" to="5_N" fromLane="1" toLane="1" tl="cluster_Ju_Hobrovej_sonderSkov_O_Ju_Hobrovej_sonderSkov_OS_Ju_Hobrovej_sonderSkov_V_Ju_Hobrovej_sonderSkov_VS" linkIndex="6"/>
    <connection from="7_N.-60" to="6_V" fromLane="2" toLane="0" tl="cluster_Ju_Hobrovej_sonderSkov_O_Ju_Hobrovej_sonderSkov_OS_Ju_Hobrovej_sonderSkov_V_Ju_Hobrovej_sonderSkov_VS" linkIndex="7"/>

	
	
	<!-- Hobrovej_MollerPark -->
	<tlLogic id="cluster_Ju_Hobrovej_MollerPark_Ju_Hobrovej_MollerPark_NO" type="static" programID="0" offset="15">
		<phase duration="44" state="gggrrggg"/> <!-- 1 -->
		<phase duration="4"  state="yyyrrggg"/>
		<phase duration="10" state="rrrrrggg"/> <!-- 2 -->
		<phase duration="4"  state="rrrrryyy"/>
		<phase duration="2"  state="rrryyrrr"/>
		<phase duration="30" state="rrrggrrr"/> <!-- 2 -->
		<phase duration="4"  state="rrryyrrr"/>
		<phase duration="2"  state="yyyrryyy"/>
		
		<phase duration="4"  state="yyyrryyy"/>
		<phase duration="2"  state="rrryyrrr"/>
		<phase duration="30" state="rrrggrrr"/> <!-- 2 -->
		<phase duration="4"  state="rrryyrrr"/>
		<phase duration="2"  state="yyyrryyy"/>
	</tlLogic>
	
	<connection from="11_S.-50" to="12_V"  fromLane="0" toLane="0" tl="cluster_Ju_Hobrovej_MollerPark_Ju_Hobrovej_MollerPark_NO" linkIndex="0"/>
	<connection from="11_S.-50" to="13_S"  fromLane="1" toLane="0" tl="cluster_Ju_Hobrovej_MollerPark_Ju_Hobrovej_MollerPark_NO" linkIndex="1"/>
	<connection from="11_S.-50" to="13_S"  fromLane="2" toLane="1" tl="cluster_Ju_Hobrovej_MollerPark_Ju_Hobrovej_MollerPark_NO" linkIndex="2"/>	

	<connection from="12_O" to="11_N"  fromLane="0" toLane="0" tl="cluster_Ju_Hobrovej_MollerPark_Ju_Hobrovej_MollerPark_NO" linkIndex="3"/>	
	<connection from="12_O" to="13_S"  fromLane="0" toLane="0" tl="cluster_Ju_Hobrovej_MollerPark_Ju_Hobrovej_MollerPark_NO" linkIndex="4"/>

	<connection from="13_N.-40" to="11_N"  fromLane="0" toLane="0" tl="cluster_Ju_Hobrovej_MollerPark_Ju_Hobrovej_MollerPark_NO" linkIndex="5"/>	
	<connection from="13_N.-40" to="11_N"  fromLane="1" toLane="1" tl="cluster_Ju_Hobrovej_MollerPark_Ju_Hobrovej_MollerPark_NO" linkIndex="6"/>
	<connection from="13_N.-40" to="12_V"  fromLane="2" toLane="0" tl="cluster_Ju_Hobrovej_MollerPark_Ju_Hobrovej_MollerPark_NO" linkIndex="7"/>
	
	<!-- Begin Junction hobrovej_VestreAlle_NyKervej -->
	<tlLogic id="Ju_hobrovej_VestreAlle_NyKervej" type="static" programID="0" offset="0">

		<phase duration="44" state="ggggggggrrrrrr"/> <!-- 2 -->
		<phase duration="4"  state="yyygyyygrrrrrr"/>
		<phase duration="6"  state="rrrGrrrGrrrrrr"/> <!-- 3 -->
		<phase duration="4"  state="rrryrrryrrrrrr"/>
		<phase duration="2"  state="rrrrrrrryyyyyy"/>
		<phase duration="34" state="rrrrrrrrgggggg"/> <!-- 4 -->
		<phase duration="4"  state="rrrrrrrryyyyyy"/>
		<phase duration="2"  state="yyyyyyyyrrrrrr"/>
	</tlLogic>

	<!-- from hobro N -->
	<connection from="17_S.-60" to="19_V"  fromLane="0" toLane="0" tl="Ju_hobrovej_VestreAlle_NyKervej" linkIndex="0"/>
	<connection from="17_S.-60" to="18_S"  fromLane="1" toLane="0" tl="Ju_hobrovej_VestreAlle_NyKervej" linkIndex="1"/>
	<connection from="17_S.-60" to="18_S"  fromLane="2" toLane="1" tl="Ju_hobrovej_VestreAlle_NyKervej" linkIndex="2"/>
	<connection from="17_S.-60" to="20_O"  fromLane="3" toLane="0" tl="Ju_hobrovej_VestreAlle_NyKervej" linkIndex="3"/>

	<!-- from Hobro S -->
	<connection from="18_N.-60" to="20_O"  fromLane="0" toLane="0" tl="Ju_hobrovej_VestreAlle_NyKervej" linkIndex="4"/>
	<connection from="18_N.-60" to="17_N"  fromLane="1" toLane="0" tl="Ju_hobrovej_VestreAlle_NyKervej" linkIndex="5"/>
	<connection from="18_N.-60" to="17_N"  fromLane="2" toLane="1" tl="Ju_hobrovej_VestreAlle_NyKervej" linkIndex="6"/>
	<connection from="18_N.-60" to="19_V"  fromLane="3" toLane="0" tl="Ju_hobrovej_VestreAlle_NyKervej" linkIndex="7"/>

	<!-- from VesterAlle -->
	<connection from="19_O.-60" to="18_S"  fromLane="0" toLane="0" tl="Ju_hobrovej_VestreAlle_NyKervej" linkIndex="8"/>
	<connection from="19_O.-60" to="20_O"  fromLane="1" toLane="0" tl="Ju_hobrovej_VestreAlle_NyKervej" linkIndex="9"/>
	<connection from="19_O.-60" to="17_N"  fromLane="2" toLane="0" tl="Ju_hobrovej_VestreAlle_NyKervej" linkIndex="10"/>

	<!-- from nykaer -->
	<connection from="20_V" to="17_N"      fromLane="0" toLane="0" tl="Ju_hobrovej_VestreAlle_NyKervej" linkIndex="11"/>
	<connection from="20_V" to="19_V"      fromLane="1" toLane="0" tl="Ju_hobrovej_VestreAlle_NyKervej" linkIndex="12"/>
	<connection from="20_V" to="18_S"      fromLane="2" toLane="0" tl="Ju_hobrovej_VestreAlle_NyKervej" linkIndex="13"/>
	<!-- End Junction hobrovej_VestreAlle_NyKervej -->
	
</tlLogics>


