<routes>
<vType id="v1" accel="0.8" decel="4.5" sigma="0.5" length="5" minGap="2.5" maxSpeed="70" guiShape="passenger"/>	
<vType id="v2" accel="0.8" decel="4.5" sigma="0.5" length="15" minGap="3.5" maxSpeed="50" guiShape="bus"/>

<route id="r1" edges="51o 1i 2o 52i" />
<route id="r2" edges="52o 2i 1o 51i" />
<route id="r3" edges="54o 4i 3o 53i" />

<vehicle id="0" type="v2" route="r3" depart="0"/>
<vehicle id="1" type="v1" route="r2" depart="8"/>
<vehicle id="2" type="v1" route="r2" depart="9"/>
<vehicle id="3" type="v1" route="r1" depart="10"/>
<vehicle id="4" type="v1" route="r1" depart="16"/>
<vehicle id="5" type="v1" route="r1" depart="17"/>
<vehicle id="6" type="v1" route="r1" depart="20"/>
<vehicle id="7" type="v1" route="r1" depart="21"/>
<vehicle id="8" type="v1" route="r1" depart="25"/>
<vehicle id="9" type="v1" route="r2" depart="25"/>
<vehicle id="10" type="v1" route="r2" depart="31"/>
<vehicle id="11" type="v2" route="r3" depart="31"/>
<vehicle id="12" type="v1" route="r2" depart="38"/>
<vehicle id="13" type="v1" route="r2" depart="39"/>
<vehicle id="14" type="v2" route="r3" depart="42"/>
<vehicle id="15" type="v1" route="r2" depart="46"/>
<vehicle id="16" type="v2" route="r3" depart="47"/>
<vehicle id="17" type="v1" route="r2" depart="53"/>
<vehicle id="18" type="v1" route="r1" depart="54"/>
<vehicle id="19" type="v2" route="r3" depart="59"/>
<vehicle id="20" type="v1" route="r2" depart="60"/>
<vehicle id="21" type="v1" route="r1" depart="61"/>
<vehicle id="22" type="v1" route="r2" depart="61"/>
<vehicle id="23" type="v2" route="r3" depart="64"/>
<vehicle id="24" type="v2" route="r3" depart="69"/>
<vehicle id="25" type="v2" route="r3" depart="73"/>
<vehicle id="26" type="v1" route="r2" depart="78"/>
<vehicle id="27" type="v2" route="r3" depart="80"/>
<vehicle id="28" type="v1" route="r2" depart="84"/>
<vehicle id="29" type="v2" route="r3" depart="84"/>
<vehicle id="30" type="v1" route="r1" depart="89"/>
<vehicle id="31" type="v1" route="r2" depart="92"/>
<vehicle id="32" type="v1" route="r1" depart="93"/>
<vehicle id="33" type="v1" route="r1" depart="94"/>
<vehicle id="34" type="v1" route="r2" depart="96"/>
<vehicle id="35" type="v2" route="r3" depart="97"/>
<vehicle id="36" type="v1" route="r2" depart="98"/>
<vehicle id="37" type="v1" route="r2" depart="101"/>
<vehicle id="38" type="v1" route="r1" depart="102"/>
<vehicle id="39" type="v1" route="r2" depart="102"/>
<vehicle id="40" type="v2" route="r3" depart="103"/>
<vehicle id="41" type="v1" route="r1" depart="105"/>
<vehicle id="42" type="v2" route="r3" depart="108"/>
<vehicle id="43" type="v1" route="r1" depart="110"/>
<vehicle id="44" type="v2" route="r3" depart="111"/>
<vehicle id="45" type="v1" route="r1" depart="114"/>
<vehicle id="46" type="v2" route="r3" depart="115"/>
<vehicle id="47" type="v1" route="r2" depart="117"/>
<vehicle id="48" type="v2" route="r3" depart="120"/>
<vehicle id="49" type="v1" route="r2" depart="121"/>
<vehicle id="50" type="v2" route="r3" depart="121"/>
<vehicle id="51" type="v1" route="r1" depart="130"/>
<vehicle id="52" type="v1" route="r2" depart="132"/>
<vehicle id="53" type="v2" route="r3" depart="133"/>
<vehicle id="54" type="v1" route="r1" depart="136"/>
<vehicle id="55" type="v1" route="r1" depart="137"/>
<vehicle id="56" type="v2" route="r3" depart="140"/>
<vehicle id="57" type="v2" route="r3" depart="141"/>
<vehicle id="58" type="v1" route="r1" depart="143"/>
<vehicle id="59" type="v1" route="r2" depart="144"/>
<vehicle id="60" type="v1" route="r1" depart="145"/>
<vehicle id="61" type="v2" route="r3" depart="148"/>
<vehicle id="62" type="v2" route="r3" depart="149"/>
<vehicle id="63" type="v1" route="r1" depart="156"/>
<vehicle id="64" type="v1" route="r2" depart="157"/>
<vehicle id="65" type="v2" route="r3" depart="157"/>
<vehicle id="66" type="v2" route="r3" depart="163"/>
<vehicle id="67" type="v2" route="r3" depart="170"/>
<vehicle id="68" type="v2" route="r3" depart="171"/>
<vehicle id="69" type="v1" route="r2" depart="172"/>
<vehicle id="70" type="v1" route="r1" depart="175"/>
<vehicle id="71" type="v1" route="r1" depart="177"/>
<vehicle id="72" type="v1" route="r2" depart="177"/>
<vehicle id="73" type="v2" route="r3" depart="180"/>
<vehicle id="74" type="v1" route="r2" depart="181"/>
<vehicle id="75" type="v1" route="r2" depart="182"/>
<vehicle id="76" type="v2" route="r3" depart="184"/>
<vehicle id="77" type="v2" route="r3" depart="186"/>
<vehicle id="78" type="v2" route="r3" depart="187"/>
<vehicle id="79" type="v1" route="r2" depart="195"/>
<vehicle id="80" type="v1" route="r1" depart="200"/>
<vehicle id="81" type="v1" route="r1" depart="201"/>
<vehicle id="82" type="v1" route="r2" depart="201"/>
<vehicle id="83" type="v1" route="r2" depart="206"/>
<vehicle id="84" type="v2" route="r3" depart="209"/>
<vehicle id="85" type="v1" route="r2" depart="211"/>
<vehicle id="86" type="v2" route="r3" depart="211"/>
<vehicle id="87" type="v1" route="r2" depart="218"/>
<vehicle id="88" type="v1" route="r2" depart="219"/>
<vehicle id="89" type="v1" route="r1" depart="220"/>
<vehicle id="90" type="v2" route="r3" depart="224"/>
<vehicle id="91" type="v1" route="r2" depart="226"/>
<vehicle id="92" type="v1" route="r1" depart="230"/>
<vehicle id="93" type="v2" route="r3" depart="232"/>
<vehicle id="94" type="v1" route="r1" depart="237"/>
<vehicle id="95" type="v1" route="r1" depart="242"/>
<vehicle id="96" type="v2" route="r3" depart="247"/>
<vehicle id="97" type="v1" route="r1" depart="249"/>
<vehicle id="98" type="v2" route="r3" depart="249"/>
<vehicle id="99" type="v1" route="r1" depart="253"/>
<vehicle id="100" type="v1" route="r2" depart="258"/>
<vehicle id="101" type="v1" route="r1" depart="259"/>
<vehicle id="102" type="v1" route="r1" depart="269"/>
<vehicle id="103" type="v1" route="r1" depart="271"/>
<vehicle id="104" type="v1" route="r2" depart="277"/>
<vehicle id="105" type="v1" route="r1" depart="279"/>
<vehicle id="106" type="v1" route="r2" depart="292"/>
<vehicle id="107" type="v1" route="r1" depart="298"/>
<vehicle id="108" type="v2" route="r3" depart="301"/>
<vehicle id="109" type="v1" route="r1" depart="303"/>
<vehicle id="110" type="v1" route="r1" depart="304"/>
<vehicle id="111" type="v1" route="r1" depart="306"/>
<vehicle id="112" type="v1" route="r2" depart="306"/>
<vehicle id="113" type="v1" route="r2" depart="307"/>
<vehicle id="114" type="v1" route="r2" depart="311"/>
<vehicle id="115" type="v1" route="r2" depart="312"/>
<vehicle id="116" type="v1" route="r2" depart="320"/>
<vehicle id="117" type="v2" route="r3" depart="320"/>
<vehicle id="118" type="v1" route="r1" depart="321"/>
<vehicle id="119" type="v2" route="r3" depart="323"/>
<vehicle id="120" type="v2" route="r3" depart="325"/>
<vehicle id="121" type="v1" route="r2" depart="326"/>
<vehicle id="122" type="v1" route="r1" depart="330"/>
<vehicle id="123" type="v1" route="r1" depart="332"/>
<vehicle id="124" type="v1" route="r2" depart="332"/>
<vehicle id="125" type="v1" route="r2" depart="335"/>
<vehicle id="126" type="v2" route="r3" depart="336"/>
<vehicle id="127" type="v1" route="r1" depart="338"/>
<vehicle id="128" type="v1" route="r1" depart="342"/>
<vehicle id="129" type="v2" route="r3" depart="346"/>
<vehicle id="130" type="v1" route="r2" depart="348"/>
<vehicle id="131" type="v1" route="r2" depart="355"/>
<vehicle id="132" type="v2" route="r3" depart="356"/>
<vehicle id="133" type="v1" route="r2" depart="360"/>
<vehicle id="134" type="v1" route="r2" depart="364"/>
<vehicle id="135" type="v2" route="r3" depart="365"/>
<vehicle id="136" type="v2" route="r3" depart="370"/>
<vehicle id="137" type="v1" route="r2" depart="374"/>
<vehicle id="138" type="v2" route="r3" depart="375"/>
<vehicle id="139" type="v1" route="r2" depart="377"/>
<vehicle id="140" type="v1" route="r2" depart="380"/>
<vehicle id="141" type="v1" route="r1" depart="383"/>
<vehicle id="142" type="v2" route="r3" depart="385"/>
<vehicle id="143" type="v1" route="r2" depart="386"/>
<vehicle id="144" type="v1" route="r1" depart="389"/>
<vehicle id="145" type="v1" route="r2" depart="392"/>
<vehicle id="146" type="v1" route="r2" depart="394"/>
<vehicle id="147" type="v2" route="r3" depart="394"/>
<vehicle id="148" type="v1" route="r2" depart="395"/>
<vehicle id="149" type="v1" route="r2" depart="404"/>
<vehicle id="150" type="v2" route="r3" depart="406"/>
<vehicle id="151" type="v1" route="r2" depart="407"/>
<vehicle id="152" type="v1" route="r2" depart="411"/>
<vehicle id="153" type="v1" route="r2" depart="412"/>
<vehicle id="154" type="v1" route="r1" depart="416"/>
<vehicle id="155" type="v1" route="r2" depart="420"/>
<vehicle id="156" type="v1" route="r2" depart="422"/>
<vehicle id="157" type="v2" route="r3" depart="429"/>
<vehicle id="158" type="v1" route="r2" depart="432"/>
<vehicle id="159" type="v1" route="r2" depart="433"/>
<vehicle id="160" type="v1" route="r1" depart="435"/>
<vehicle id="161" type="v2" route="r3" depart="437"/>
<vehicle id="162" type="v1" route="r2" depart="446"/>
<vehicle id="163" type="v1" route="r1" depart="452"/>
<vehicle id="164" type="v2" route="r3" depart="452"/>
<vehicle id="165" type="v1" route="r2" depart="458"/>
<vehicle id="166" type="v1" route="r1" depart="459"/>
<vehicle id="167" type="v1" route="r1" depart="465"/>
<vehicle id="168" type="v2" route="r3" depart="468"/>
<vehicle id="169" type="v1" route="r1" depart="469"/>
<vehicle id="170" type="v1" route="r1" depart="472"/>
<vehicle id="171" type="v1" route="r2" depart="481"/>
<vehicle id="172" type="v2" route="r3" depart="484"/>
<vehicle id="173" type="v1" route="r2" depart="485"/>
<vehicle id="174" type="v1" route="r2" depart="487"/>
<vehicle id="175" type="v1" route="r1" depart="490"/>
<vehicle id="176" type="v2" route="r3" depart="491"/>
<vehicle id="177" type="v1" route="r2" depart="495"/>
<vehicle id="178" type="v1" route="r2" depart="496"/>
<vehicle id="179" type="v1" route="r1" depart="497"/>
<vehicle id="180" type="v1" route="r2" depart="505"/>
<vehicle id="181" type="v1" route="r2" depart="508"/>
<vehicle id="182" type="v2" route="r3" depart="509"/>
<vehicle id="183" type="v1" route="r2" depart="511"/>
<vehicle id="184" type="v1" route="r1" depart="519"/>
<vehicle id="185" type="v1" route="r2" depart="523"/>
<vehicle id="186" type="v1" route="r1" depart="542"/>
<vehicle id="187" type="v2" route="r3" depart="560"/>
<vehicle id="188" type="v1" route="r1" depart="568"/>
<vehicle id="189" type="v1" route="r2" depart="577"/>
<vehicle id="190" type="v1" route="r2" depart="582"/>
<vehicle id="191" type="v2" route="r3" depart="587"/>
<vehicle id="192" type="v2" route="r3" depart="588"/>
<vehicle id="193" type="v1" route="r1" depart="590"/>
<vehicle id="194" type="v1" route="r1" depart="596"/>
<vehicle id="195" type="v2" route="r3" depart="605"/>
<vehicle id="196" type="v2" route="r3" depart="607"/>
<vehicle id="197" type="v1" route="r1" depart="614"/>
<vehicle id="198" type="v1" route="r2" depart="619"/>
<vehicle id="199" type="v1" route="r1" depart="628"/>
<vehicle id="200" type="v2" route="r3" depart="628"/>
<vehicle id="201" type="v2" route="r3" depart="631"/>
<vehicle id="202" type="v1" route="r1" depart="644"/>
<vehicle id="203" type="v1" route="r1" depart="646"/>
<vehicle id="204" type="v1" route="r1" depart="648"/>
<vehicle id="205" type="v1" route="r1" depart="654"/>
<vehicle id="206" type="v2" route="r3" depart="663"/>
<vehicle id="207" type="v1" route="r1" depart="667"/>
<vehicle id="208" type="v1" route="r2" depart="670"/>
<vehicle id="209" type="v1" route="r1" depart="673"/>
<vehicle id="210" type="v1" route="r2" depart="673"/>
<vehicle id="211" type="v1" route="r2" depart="675"/>
<vehicle id="212" type="v1" route="r2" depart="676"/>
<vehicle id="213" type="v2" route="r3" depart="678"/>
<vehicle id="214" type="v1" route="r2" depart="686"/>
<vehicle id="215" type="v1" route="r1" depart="701"/>
<vehicle id="216" type="v1" route="r1" depart="705"/>
<vehicle id="217" type="v1" route="r1" depart="711"/>
<vehicle id="218" type="v1" route="r2" depart="711"/>
<vehicle id="219" type="v2" route="r3" depart="712"/>
<vehicle id="220" type="v2" route="r3" depart="713"/>
<vehicle id="221" type="v2" route="r3" depart="714"/>
<vehicle id="222" type="v1" route="r1" depart="718"/>
<vehicle id="223" type="v1" route="r2" depart="722"/>
<vehicle id="224" type="v1" route="r2" depart="725"/>
<vehicle id="225" type="v1" route="r2" depart="730"/>
<vehicle id="226" type="v1" route="r1" depart="732"/>
<vehicle id="227" type="v2" route="r3" depart="743"/>
<vehicle id="228" type="v2" route="r3" depart="744"/>
<vehicle id="229" type="v2" route="r3" depart="746"/>
<vehicle id="230" type="v1" route="r2" depart="748"/>
<vehicle id="231" type="v2" route="r3" depart="754"/>
<vehicle id="232" type="v2" route="r3" depart="755"/>
<vehicle id="233" type="v1" route="r2" depart="756"/>
<vehicle id="234" type="v1" route="r2" depart="757"/>
<vehicle id="235" type="v1" route="r1" depart="765"/>
<vehicle id="236" type="v2" route="r3" depart="767"/>
<vehicle id="237" type="v2" route="r3" depart="772"/>
<vehicle id="238" type="v1" route="r2" depart="773"/>
<vehicle id="239" type="v2" route="r3" depart="775"/>
<vehicle id="240" type="v1" route="r1" depart="780"/>
<vehicle id="241" type="v1" route="r1" depart="781"/>
<vehicle id="242" type="v1" route="r2" depart="782"/>
<vehicle id="243" type="v2" route="r3" depart="795"/>
<vehicle id="244" type="v1" route="r1" depart="796"/>
<vehicle id="245" type="v1" route="r1" depart="797"/>
<vehicle id="246" type="v1" route="r1" depart="802"/>
<vehicle id="247" type="v2" route="r3" depart="802"/>
<vehicle id="248" type="v1" route="r1" depart="804"/>
<vehicle id="249" type="v1" route="r2" depart="804"/>
<vehicle id="250" type="v2" route="r3" depart="805"/>
<vehicle id="251" type="v1" route="r2" depart="807"/>
<vehicle id="252" type="v2" route="r3" depart="809"/>
<vehicle id="253" type="v2" route="r3" depart="815"/>
<vehicle id="254" type="v1" route="r2" depart="818"/>
<vehicle id="255" type="v1" route="r2" depart="823"/>
<vehicle id="256" type="v2" route="r3" depart="828"/>
<vehicle id="257" type="v2" route="r3" depart="829"/>
<vehicle id="258" type="v1" route="r2" depart="831"/>
<vehicle id="259" type="v2" route="r3" depart="831"/>
<vehicle id="260" type="v1" route="r1" depart="832"/>
<vehicle id="261" type="v1" route="r2" depart="832"/>
<vehicle id="262" type="v1" route="r1" depart="835"/>
<vehicle id="263" type="v1" route="r2" depart="837"/>
<vehicle id="264" type="v1" route="r2" depart="844"/>
<vehicle id="265" type="v1" route="r1" depart="852"/>
<vehicle id="266" type="v2" route="r3" depart="852"/>
<vehicle id="267" type="v2" route="r3" depart="853"/>
<vehicle id="268" type="v1" route="r2" depart="855"/>
<vehicle id="269" type="v1" route="r2" depart="861"/>
<vehicle id="270" type="v1" route="r2" depart="862"/>
<vehicle id="271" type="v1" route="r1" depart="863"/>
<vehicle id="272" type="v2" route="r3" depart="864"/>
<vehicle id="273" type="v2" route="r3" depart="869"/>
<vehicle id="274" type="v1" route="r1" depart="870"/>
<vehicle id="275" type="v1" route="r1" depart="879"/>
<vehicle id="276" type="v1" route="r2" depart="879"/>
<vehicle id="277" type="v2" route="r3" depart="885"/>
<vehicle id="278" type="v1" route="r1" depart="891"/>
<vehicle id="279" type="v1" route="r1" depart="892"/>
<vehicle id="280" type="v1" route="r1" depart="893"/>
<vehicle id="281" type="v1" route="r2" depart="894"/>
<vehicle id="282" type="v1" route="r1" depart="895"/>
<vehicle id="283" type="v1" route="r2" depart="897"/>
<vehicle id="284" type="v1" route="r1" depart="898"/>
<vehicle id="285" type="v1" route="r2" depart="900"/>
<vehicle id="286" type="v1" route="r2" depart="906"/>
<vehicle id="287" type="v1" route="r1" depart="915"/>
<vehicle id="288" type="v1" route="r2" depart="915"/>
<vehicle id="289" type="v1" route="r1" depart="917"/>
<vehicle id="290" type="v1" route="r2" depart="918"/>
<vehicle id="291" type="v1" route="r1" depart="922"/>
<vehicle id="292" type="v1" route="r2" depart="922"/>
<vehicle id="293" type="v1" route="r1" depart="924"/>
<vehicle id="294" type="v1" route="r1" depart="927"/>
<vehicle id="295" type="v1" route="r2" depart="928"/>
<vehicle id="296" type="v1" route="r2" depart="929"/>
<vehicle id="297" type="v2" route="r3" depart="933"/>
<vehicle id="298" type="v2" route="r3" depart="936"/>
<vehicle id="299" type="v1" route="r1" depart="939"/>
<vehicle id="300" type="v1" route="r1" depart="943"/>
<vehicle id="301" type="v2" route="r3" depart="944"/>
<vehicle id="302" type="v1" route="r1" depart="945"/>
<vehicle id="303" type="v2" route="r3" depart="955"/>
<vehicle id="304" type="v2" route="r3" depart="956"/>
<vehicle id="305" type="v1" route="r1" depart="958"/>
<vehicle id="306" type="v1" route="r2" depart="959"/>
<vehicle id="307" type="v2" route="r3" depart="959"/>
<vehicle id="308" type="v2" route="r3" depart="961"/>
<vehicle id="309" type="v1" route="r1" depart="963"/>
<vehicle id="310" type="v2" route="r3" depart="963"/>
<vehicle id="311" type="v1" route="r1" depart="964"/>
<vehicle id="312" type="v1" route="r1" depart="967"/>
<vehicle id="313" type="v2" route="r3" depart="967"/>
<vehicle id="314" type="v2" route="r3" depart="981"/>
<vehicle id="315" type="v2" route="r3" depart="982"/>
<vehicle id="316" type="v1" route="r2" depart="988"/>
<vehicle id="317" type="v1" route="r2" depart="992"/>
<vehicle id="318" type="v1" route="r1" depart="995"/>
<vehicle id="319" type="v2" route="r3" depart="996"/>
</routes>
