<?xml version="1.0" encoding="UTF-8"?>

<!-- generated on Thu Sep  6 13:41:51 2012 by SUMO netconvert Version 0.15.0
<?xml version="1.0" encoding="UTF-8"?>

<configuration xmlns:xsi="http://www.w3.org/2001/XMLSchema-instance" xsi:noNamespaceSchemaLocation="http://sumo.sf.net/xsd/netconvertConfiguration.xsd">

    <input>
        <osm-files value="vesterbrog.osm"/>
    </input>

    <output>
        <output-file value="vesterbrog.net.xml"/>
    </output>

    <projection>
        <proj.utm value="true"/>
    </projection>

    <tls_building>
        <tls.join value="true"/>
    </tls_building>

</configuration>
-->

<net version="0.13" xmlns:xsi="http://www.w3.org/2001/XMLSchema-instance" xsi:noNamespaceSchemaLocation="http://sumo.sf.net/xsd/net_file.xsd">

    <location netOffset="-552389.03,-6316571.54" convBoundary="0.00,0.00,6466.61,7569.53" origBoundary="9.862176,56.989714,9.970172,57.057288" projParameter="+proj=utm +zone=32 +ellps=WGS84 +datum=WGS84 +units=m +no_defs"/>

    <edge id=":-380788_0" function="internal">
        <lane id=":-380788_0_0" index="0" speed="22.22" length="7.00" shape="2881.95,5732.72 2888.90,5733.52"/>
    </edge>
    <edge id=":-380788_1" function="internal">
        <lane id=":-380788_1_0" index="0" speed="22.22" length="7.63" shape="2881.97,5736.70 2888.90,5733.52"/>
    </edge>
    <edge id=":-380788_2" function="internal">
        <lane id=":-380788_2_0" index="0" speed="22.22" length="7.51" shape="2883.35,5739.70 2890.17,5736.56"/>
    </edge>
    <edge id=":-380800_0" function="internal">
        <lane id=":-380800_0_0" index="0" speed="25.00" length="11.05" shape="2873.92,5706.90 2874.55,5710.10 2875.57,5712.20 2876.94,5714.10 2878.64,5716.71"/>
    </edge>
    <edge id=":-380800_1" function="internal">
        <lane id=":-380800_1_0" index="0" speed="27.78" length="15.16" shape="2873.92,5706.90 2874.39,5711.37 2874.71,5714.44 2875.03,5717.50 2875.50,5721.98"/>
    </edge>
    <edge id=":-380800_2" function="internal">
        <lane id=":-380800_2_0" index="0" speed="27.78" length="15.16" shape="2870.64,5707.24 2871.11,5711.72 2871.43,5714.78 2871.75,5717.84 2872.22,5722.32"/>
    </edge>
    <edge id=":-380800_3" function="internal">
        <lane id=":-380800_3_0" index="0" speed="25.00" length="15.16" shape="2870.64,5707.24 2870.79,5712.04 2870.29,5715.66 2869.46,5718.80 2868.61,5722.14"/>
    </edge>
    <edge id=":-380838_0" function="internal">
        <lane id=":-380838_0_0" index="0" speed="22.22" length="0.28" shape="2869.28,5736.57 2869.27,5736.85"/>
    </edge>
    <edge id=":-380849_0" function="internal">
        <lane id=":-380849_0_0" index="0" speed="25.00" length="8.04" shape="2883.42,5760.44 2881.93,5762.42 2880.91,5764.28 2880.36,5766.01 2880.27,5767.63"/>
    </edge>
    <edge id=":-380849_1" function="internal">
        <lane id=":-380849_1_0" index="0" speed="27.78" length="5.68" shape="2879.75,5761.97 2880.27,5767.63"/>
    </edge>
    <edge id=":-380849_2" function="internal">
        <lane id=":-380849_2_0" index="0" speed="27.78" length="5.68" shape="2876.46,5762.28 2876.99,5767.94"/>
    </edge>
    <edge id=":-380853_0" function="internal">
        <lane id=":-380853_0_0" index="0" speed="22.22" length="7.80" shape="2905.20,5744.53 2900.66,5750.87"/>
    </edge>
    <edge id=":-380853_1" function="internal">
        <lane id=":-380853_1_0" index="0" speed="22.22" length="8.57" shape="2905.20,5744.53 2897.47,5748.24"/>
    </edge>
    <edge id=":-380853_2" function="internal">
        <lane id=":-380853_2_0" index="0" speed="22.22" length="8.60" shape="2903.80,5741.55 2896.04,5745.27"/>
    </edge>
    <edge id=":-380853_3" function="internal">
        <lane id=":-380853_3_0" index="0" speed="22.22" length="8.23" shape="2903.80,5741.55 2895.56,5741.54"/>
    </edge>
    <edge id=":-380855_0" function="internal">
        <lane id=":-380855_0_0" index="0" speed="22.22" length="0.46" shape="2883.55,5746.63 2883.10,5746.75"/>
    </edge>
    <edge id=":-380871_0" function="internal">
        <lane id=":-380871_0_0" index="0" speed="27.78" length="4.42" shape="2862.93,5741.69 2862.65,5737.28"/>
    </edge>
    <edge id=":-380871_1" function="internal">
        <lane id=":-380871_1_0" index="0" speed="27.78" length="4.42" shape="2866.22,5741.49 2865.95,5737.08"/>
    </edge>
    <edge id=":-380871_2" function="internal">
        <lane id=":-380871_2_0" index="0" speed="25.00" length="7.60" shape="2859.28,5744.10 2862.65,5737.28"/>
    </edge>
    <edge id=":-380874_0" function="internal">
        <lane id=":-380874_0_0" index="0" speed="25.00" length="9.64" shape="2867.68,5790.36 2863.12,5781.88"/>
    </edge>
    <edge id=":-380874_1" function="internal">
        <lane id=":-380874_1_0" index="0" speed="27.78" length="9.83" shape="2867.68,5790.36 2866.73,5780.58"/>
    </edge>
    <edge id=":-380874_2" function="internal">
        <lane id=":-380874_2_0" index="0" speed="27.78" length="9.83" shape="2870.97,5790.04 2870.01,5780.26"/>
    </edge>
    <edge id=":-380874_3" function="internal">
        <lane id=":-380874_3_0" index="0" speed="25.00" length="9.47" shape="2870.97,5790.04 2873.82,5781.01"/>
    </edge>
    <edge id=":-380880_0" function="internal">
        <lane id=":-380880_0_0" index="0" speed="22.22" length="5.85" shape="2859.66,5771.99 2858.06,5771.14 2856.61,5770.73 2855.32,5770.75 2854.18,5771.22"/>
    </edge>
    <edge id=":-380880_1" function="internal">
        <lane id=":-380880_1_0" index="0" speed="22.22" length="6.52" shape="2859.65,5767.68 2854.18,5771.22"/>
    </edge>
    <edge id=":-380880_2" function="internal">
        <lane id=":-380880_2_0" index="0" speed="22.22" length="6.52" shape="2857.85,5764.91 2852.38,5768.45"/>
    </edge>
    <edge id=":-380888_0" function="internal">
        <lane id=":-380888_0_0" index="0" speed="22.22" length="0.38" shape="2872.44,5764.24 2872.46,5763.87"/>
    </edge>
    <edge id=":-380891_0" function="internal">
        <lane id=":-380891_0_0" index="0" speed="22.22" length="4.50" shape="2840.92,5762.07 2844.06,5758.85"/>
    </edge>
    <edge id=":-380891_1" function="internal">
        <lane id=":-380891_1_0" index="0" speed="22.22" length="4.85" shape="2840.92,5762.07 2844.93,5759.35"/>
    </edge>
    <edge id=":-380891_2" function="internal">
        <lane id=":-380891_2_0" index="0" speed="22.22" length="7.27" shape="2842.78,5764.80 2848.78,5760.72"/>
    </edge>
    <edge id=":-380891_3" function="internal">
        <lane id=":-380891_3_0" index="0" speed="22.22" length="7.16" shape="2842.78,5764.80 2848.93,5761.14"/>
    </edge>
    <edge id=":-380893_0" function="internal">
        <lane id=":-380893_0_0" index="0" speed="22.22" length="0.46" shape="2860.63,5756.99 2861.08,5756.90"/>
    </edge>
    <edge id=":1016830023_0" function="internal">
        <lane id=":1016830023_0_0" index="0" speed="22.22" length="0.10" shape="5829.29,6935.97 5829.29,6935.97"/>
    </edge>
    <edge id=":1016830023_1" function="internal">
        <lane id=":1016830023_1_0" index="0" speed="22.22" length="2.41" shape="5829.29,6935.97 5828.43,6937.18 5827.59,6937.57"/>
    </edge>
    <edge id=":1016830023_4" function="internal">
        <lane id=":1016830023_4_0" index="0" speed="22.22" length="2.41" shape="5827.59,6937.57 5826.78,6937.13 5825.99,6935.87"/>
    </edge>
    <edge id=":1016830023_2" function="internal">
        <lane id=":1016830023_2_0" index="0" speed="22.22" length="0.10" shape="5825.99,6935.87 5825.99,6935.87"/>
    </edge>
    <edge id=":1016830023_3" function="internal">
        <lane id=":1016830023_3_0" index="0" speed="22.22" length="2.41" shape="5825.99,6935.87 5826.85,6934.66 5827.69,6934.27"/>
    </edge>
    <edge id=":1016830023_5" function="internal">
        <lane id=":1016830023_5_0" index="0" speed="22.22" length="2.41" shape="5827.69,6934.27 5828.50,6934.71 5829.29,6935.97"/>
    </edge>
    <edge id=":1016830224_0" function="internal">
        <lane id=":1016830224_0_0" index="0" speed="22.22" length="0.10" shape="5831.00,6882.00 5831.00,6882.00"/>
    </edge>
    <edge id=":1016830224_1" function="internal">
        <lane id=":1016830224_1_0" index="0" speed="22.22" length="2.41" shape="5831.00,6882.00 5830.14,6883.21 5829.30,6883.60"/>
    </edge>
    <edge id=":1016830224_4" function="internal">
        <lane id=":1016830224_4_0" index="0" speed="22.22" length="2.41" shape="5829.30,6883.60 5828.49,6883.16 5827.70,6881.90"/>
    </edge>
    <edge id=":1016830224_2" function="internal">
        <lane id=":1016830224_2_0" index="0" speed="22.22" length="0.10" shape="5827.70,6881.90 5827.70,6881.90"/>
    </edge>
    <edge id=":1016830224_3" function="internal">
        <lane id=":1016830224_3_0" index="0" speed="22.22" length="2.41" shape="5827.70,6881.90 5828.57,6880.68 5829.40,6880.30"/>
    </edge>
    <edge id=":1016830224_5" function="internal">
        <lane id=":1016830224_5_0" index="0" speed="22.22" length="2.41" shape="5829.40,6880.30 5830.22,6880.74 5831.00,6882.00"/>
    </edge>
    <edge id=":1019668105_0" function="internal">
        <lane id=":1019668105_0_0" index="0" speed="13.89" length="9.67" shape="3867.22,5352.09 3866.90,5361.75"/>
    </edge>
    <edge id=":1019668105_1" function="internal">
        <lane id=":1019668105_1_0" index="0" speed="13.89" length="6.82" shape="3867.22,5352.09 3866.72,5354.53 3865.39,5356.47 3863.74,5357.57"/>
    </edge>
    <edge id=":1019668105_9" function="internal">
        <lane id=":1019668105_9_0" index="0" speed="13.89" length="3.70" shape="3863.74,5357.57 3863.25,5357.89 3860.27,5358.81"/>
    </edge>
    <edge id=":1019668105_2" function="internal">
        <lane id=":1019668105_2_0" index="0" speed="13.89" length="2.41" shape="3867.22,5352.09 3866.35,5353.30 3865.51,5353.69"/>
    </edge>
    <edge id=":1019668105_10" function="internal">
        <lane id=":1019668105_10_0" index="0" speed="13.89" length="2.41" shape="3865.51,5353.69 3864.70,5353.25 3863.92,5351.98"/>
    </edge>
    <edge id=":1019668105_3" function="internal">
        <lane id=":1019668105_3_0" index="0" speed="13.89" length="6.05" shape="3859.64,5355.58 3861.48,5355.04 3862.80,5354.27 3863.62,5353.25 3863.92,5351.98"/>
    </edge>
    <edge id=":1019668105_4" function="internal">
        <lane id=":1019668105_4_0" index="0" speed="13.89" length="11.54" shape="3859.64,5355.58 3862.91,5355.41 3865.21,5356.38 3866.54,5358.50 3866.90,5361.75"/>
    </edge>
    <edge id=":1019668105_5" function="internal">
        <lane id=":1019668105_5_0" index="0" speed="13.89" length="4.81" shape="3859.64,5355.58 3861.01,5356.15 3861.57,5356.88 3861.33,5357.77 3860.27,5358.81"/>
    </edge>
    <edge id=":1019668105_6" function="internal">
        <lane id=":1019668105_6_0" index="0" speed="13.89" length="5.29" shape="3863.61,5361.64 3863.44,5360.15 3862.83,5359.18 3861.77,5358.74 3860.27,5358.81"/>
    </edge>
    <edge id=":1019668105_7" function="internal">
        <lane id=":1019668105_7_0" index="0" speed="13.89" length="9.67" shape="3863.61,5361.64 3863.92,5351.98"/>
    </edge>
    <edge id=":1019668105_8" function="internal">
        <lane id=":1019668105_8_0" index="0" speed="13.89" length="2.41" shape="3863.61,5361.64 3864.47,5360.43 3865.31,5360.05"/>
    </edge>
    <edge id=":1019668105_11" function="internal">
        <lane id=":1019668105_11_0" index="0" speed="13.89" length="2.41" shape="3865.31,5360.05 3866.12,5360.49 3866.90,5361.75"/>
    </edge>
    <edge id=":1023961487_0" function="internal">
        <lane id=":1023961487_0_0" index="0" speed="13.89" length="4.82" shape="2636.73,5594.34 2635.25,5594.20 2634.50,5593.67 2634.47,5592.75 2635.16,5591.43"/>
    </edge>
    <edge id=":1024029591_0" function="internal">
        <lane id=":1024029591_0_0" index="0" speed="13.89" length="1.04" shape="2943.92,6295.09 2943.31,6295.94"/>
    </edge>
    <edge id=":1024029591_1" function="internal">
        <lane id=":1024029591_1_0" index="0" speed="13.89" length="2.41" shape="2943.92,6295.09 2942.43,6295.13 2941.62,6294.69"/>
    </edge>
    <edge id=":1024029591_4" function="internal">
        <lane id=":1024029591_4_0" index="0" speed="13.89" length="2.41" shape="2941.62,6294.69 2941.48,6293.78 2942.01,6292.39"/>
    </edge>
    <edge id=":1024029591_2" function="internal">
        <lane id=":1024029591_2_0" index="0" speed="13.89" length="3.20" shape="2940.15,6294.99 2942.01,6292.39"/>
    </edge>
    <edge id=":1024029591_3" function="internal">
        <lane id=":1024029591_3_0" index="0" speed="13.89" length="2.41" shape="2940.15,6294.99 2941.29,6294.04 2942.20,6293.88"/>
    </edge>
    <edge id=":1024029591_5" function="internal">
        <lane id=":1024029591_5_0" index="0" speed="13.89" length="2.41" shape="2942.20,6293.88 2942.87,6294.52 2943.31,6295.94"/>
    </edge>
    <edge id=":1024030171_0" function="internal">
        <lane id=":1024030171_0_0" index="0" speed="13.89" length="4.82" shape="2991.91,6140.11 2993.36,6140.43 2994.05,6141.05 2993.96,6141.97 2993.11,6143.19"/>
    </edge>
    <edge id=":1025444708_0" function="internal">
        <lane id=":1025444708_0_0" index="0" speed="13.89" length="4.82" shape="3296.03,6746.42 3296.34,6744.96 3296.96,6744.28 3297.88,6744.36 3299.10,6745.20"/>
    </edge>
    <edge id=":1025502398_0" function="internal">
        <lane id=":1025502398_0_0" index="0" speed="13.89" length="4.82" shape="3263.71,6541.23 3263.89,6542.70 3263.53,6543.56 3262.64,6543.78 3261.21,6543.38"/>
    </edge>
    <edge id=":1025502401_0" function="internal">
        <lane id=":1025502401_0_0" index="0" speed="13.89" length="4.82" shape="3206.99,6432.58 3207.19,6431.11 3207.75,6430.37 3208.67,6430.38 3209.95,6431.13"/>
    </edge>
    <edge id=":1025558416_0" function="internal">
        <lane id=":1025558416_0_0" index="0" speed="27.78" length="9.40" shape="2877.30,5888.88 2876.38,5879.52"/>
    </edge>
    <edge id=":1025558416_1" function="internal">
        <lane id=":1025558416_1_0" index="0" speed="27.78" length="9.40" shape="2880.58,5888.56 2879.67,5879.20"/>
    </edge>
    <edge id=":1025558416_2" function="internal">
        <lane id=":1025558416_2_0" index="0" speed="27.78" length="9.19" shape="2880.58,5888.56 2883.48,5879.84"/>
    </edge>
    <edge id=":1025558660_0" function="internal">
        <lane id=":1025558660_0_0" index="0" speed="13.89" length="3.41" shape="3213.69,6566.20 3210.41,6567.12"/>
    </edge>
    <edge id=":1025558660_1" function="internal">
        <lane id=":1025558660_1_0" index="0" speed="13.89" length="3.35" shape="3213.69,6566.20 3210.39,6566.74"/>
    </edge>
    <edge id=":1025558740_0" function="internal">
        <lane id=":1025558740_0_0" index="0" speed="27.78" length="7.61" shape="3170.51,6574.02 3167.83,6566.91"/>
    </edge>
    <edge id=":1025558740_1" function="internal">
        <lane id=":1025558740_1_0" index="0" speed="27.78" length="7.70" shape="3173.60,6572.88 3170.89,6565.67"/>
    </edge>
    <edge id=":1025558740_2" function="internal">
        <lane id=":1025558740_2_0" index="0" speed="27.78" length="2.41" shape="3173.60,6572.88 3173.95,6571.43 3174.58,6570.76"/>
    </edge>
    <edge id=":1025558740_8" function="internal">
        <lane id=":1025558740_8_0" index="0" speed="27.78" length="2.41" shape="3174.58,6570.76 3175.50,6570.86 3176.70,6571.73"/>
    </edge>
    <edge id=":1025558740_3" function="internal">
        <lane id=":1025558740_3_0" index="0" speed="20.83" length="5.59" shape="3182.38,6567.08 3180.74,6567.25 3179.77,6567.89 3179.45,6569.00 3179.79,6570.59"/>
    </edge>
    <edge id=":1025558740_4" function="internal">
        <lane id=":1025558740_4_0" index="0" speed="20.83" length="3.99" shape="3182.38,6567.08 3178.40,6566.89"/>
    </edge>
    <edge id=":1025558740_9" function="internal">
        <lane id=":1025558740_9_0" index="0" speed="20.83" length="7.68" shape="3178.40,6566.89 3177.51,6566.85 3173.97,6566.54 3171.76,6566.14 3170.89,6565.67"/>
    </edge>
    <edge id=":1025558740_5" function="internal">
        <lane id=":1025558740_5_0" index="0" speed="27.78" length="7.90" shape="3177.01,6563.20 3179.79,6570.59"/>
    </edge>
    <edge id=":1025558740_6" function="internal">
        <lane id=":1025558740_6_0" index="0" speed="27.78" length="7.80" shape="3173.95,6564.43 3176.70,6571.73"/>
    </edge>
    <edge id=":1025558740_7" function="internal">
        <lane id=":1025558740_7_0" index="0" speed="27.78" length="2.41" shape="3173.95,6564.43 3173.65,6565.89 3173.03,6566.58"/>
    </edge>
    <edge id=":1025558740_10" function="internal">
        <lane id=":1025558740_10_0" index="0" speed="27.78" length="2.41" shape="3173.03,6566.58 3172.12,6566.51 3170.89,6565.67"/>
    </edge>
    <edge id=":1038460845_0" function="internal">
        <lane id=":1038460845_0_0" index="0" speed="27.78" length="0.25" shape="2170.42,2695.74 2170.17,2695.79"/>
    </edge>
    <edge id=":1038460845_1" function="internal">
        <lane id=":1038460845_1_0" index="0" speed="27.78" length="0.10" shape="2169.57,2692.54 2169.63,2692.53"/>
    </edge>
    <edge id=":1038460845_2" function="internal">
        <lane id=":1038460845_2_0" index="0" speed="27.78" length="2.41" shape="2169.57,2692.54 2168.19,2691.98 2167.62,2691.26"/>
    </edge>
    <edge id=":1038460845_6" function="internal">
        <lane id=":1038460845_6_0" index="0" speed="27.78" length="2.41" shape="2167.62,2691.26 2167.86,2690.37 2168.90,2689.31"/>
    </edge>
    <edge id=":1038460845_3" function="internal">
        <lane id=":1038460845_3_0" index="0" speed="27.78" length="0.12" shape="2168.16,2686.09 2168.27,2686.07"/>
    </edge>
    <edge id=":1038460845_4" function="internal">
        <lane id=":1038460845_4_0" index="0" speed="27.78" length="0.10" shape="2168.90,2689.31 2168.90,2689.31"/>
    </edge>
    <edge id=":1038460845_5" function="internal">
        <lane id=":1038460845_5_0" index="0" speed="27.78" length="2.41" shape="2168.90,2689.31 2170.29,2689.84 2170.87,2690.55"/>
    </edge>
    <edge id=":1038460845_7" function="internal">
        <lane id=":1038460845_7_0" index="0" speed="27.78" length="2.41" shape="2170.87,2690.55 2170.65,2691.45 2169.63,2692.53"/>
    </edge>
    <edge id=":1040023936_0" function="internal">
        <lane id=":1040023936_0_0" index="0" speed="22.22" length="0.10" shape="3207.23,5627.69 3207.33,5627.67"/>
    </edge>
    <edge id=":1040023936_1" function="internal">
        <lane id=":1040023936_1_0" index="0" speed="22.22" length="0.31" shape="3207.82,5630.94 3208.12,5630.87"/>
    </edge>
    <edge id=":1045460674_0" function="internal">
        <lane id=":1045460674_0_0" index="0" speed="13.89" length="9.55" shape="2820.20,4703.90 2819.09,4694.42"/>
    </edge>
    <edge id=":1045460674_1" function="internal">
        <lane id=":1045460674_1_0" index="0" speed="13.89" length="5.04" shape="2820.20,4703.90 2819.87,4702.56 2819.18,4701.65 2818.15,4701.19 2816.76,4701.18"/>
    </edge>
    <edge id=":1045460674_2" function="internal">
        <lane id=":1045460674_2_0" index="0" speed="13.89" length="2.41" shape="2820.20,4703.90 2820.90,4702.59 2821.68,4702.10"/>
    </edge>
    <edge id=":1045460674_9" function="internal">
        <lane id=":1045460674_9_0" index="0" speed="13.89" length="2.41" shape="2821.68,4702.10 2822.54,4702.43 2823.48,4703.58"/>
    </edge>
    <edge id=":1045460674_3" function="internal">
        <lane id=":1045460674_3_0" index="0" speed="13.89" length="7.24" shape="2822.36,4693.97 2822.33,4696.81 2821.39,4698.95 2819.77,4700.23"/>
    </edge>
    <edge id=":1045460674_10" function="internal">
        <lane id=":1045460674_10_0" index="0" speed="13.89" length="3.17" shape="2819.77,4700.23 2819.53,4700.41 2816.76,4701.18"/>
    </edge>
    <edge id=":1045460674_4" function="internal">
        <lane id=":1045460674_4_0" index="0" speed="13.89" length="9.67" shape="2822.36,4693.97 2823.48,4703.58"/>
    </edge>
    <edge id=":1045460674_5" function="internal">
        <lane id=":1045460674_5_0" index="0" speed="13.89" length="2.41" shape="2822.36,4693.97 2821.70,4695.31 2820.94,4695.83"/>
    </edge>
    <edge id=":1045460674_11" function="internal">
        <lane id=":1045460674_11_0" index="0" speed="13.89" length="2.41" shape="2820.94,4695.83 2820.07,4695.53 2819.09,4694.42"/>
    </edge>
    <edge id=":1045460674_6" function="internal">
        <lane id=":1045460674_6_0" index="0" speed="13.89" length="5.08" shape="2816.33,4697.91 2817.69,4697.54 2818.61,4696.83 2819.07,4695.79 2819.09,4694.42"/>
    </edge>
    <edge id=":1045460674_7" function="internal">
        <lane id=":1045460674_7_0" index="0" speed="13.89" length="10.48" shape="2816.33,4697.91 2819.22,4697.94 2821.37,4698.90 2822.79,4700.78 2823.48,4703.58"/>
    </edge>
    <edge id=":1045460674_8" function="internal">
        <lane id=":1045460674_8_0" index="0" speed="13.89" length="4.81" shape="2816.33,4697.91 2817.67,4698.57 2818.18,4699.33 2817.88,4700.20 2816.76,4701.18"/>
    </edge>
    <edge id=":1045460814_0" function="internal">
        <lane id=":1045460814_0_0" index="0" speed="13.89" length="4.99" shape="2810.92,4634.12 2810.55,4632.80 2809.84,4631.92 2808.81,4631.47 2807.44,4631.45"/>
    </edge>
    <edge id=":1045460814_1" function="internal">
        <lane id=":1045460814_1_0" index="0" speed="13.89" length="10.28" shape="2810.92,4634.12 2810.94,4631.30 2811.85,4629.16 2813.66,4627.69 2816.35,4626.89"/>
    </edge>
    <edge id=":1045460814_2" function="internal">
        <lane id=":1045460814_2_0" index="0" speed="13.89" length="4.82" shape="2810.92,4634.12 2811.57,4632.78 2812.33,4632.26 2813.21,4632.56 2814.19,4633.67"/>
    </edge>
    <edge id=":1045460814_3" function="internal">
        <lane id=":1045460814_3_0" index="0" speed="13.89" length="5.00" shape="2816.83,4630.16 2815.52,4630.54 2814.64,4631.26 2814.20,4632.30 2814.19,4633.67"/>
    </edge>
    <edge id=":1045460814_4" function="internal">
        <lane id=":1045460814_4_0" index="0" speed="13.89" length="9.48" shape="2816.83,4630.16 2807.44,4631.45"/>
    </edge>
    <edge id=":1045460814_5" function="internal">
        <lane id=":1045460814_5_0" index="0" speed="13.89" length="2.41" shape="2816.83,4630.16 2815.48,4629.52 2814.96,4628.76"/>
    </edge>
    <edge id=":1045460814_9" function="internal">
        <lane id=":1045460814_9_0" index="0" speed="13.89" length="2.41" shape="2814.96,4628.76 2815.25,4627.89 2816.35,4626.89"/>
    </edge>
    <edge id=":1045460814_6" function="internal">
        <lane id=":1045460814_6_0" index="0" speed="13.89" length="9.43" shape="2807.01,4628.18 2816.35,4626.89"/>
    </edge>
    <edge id=":1045460814_7" function="internal">
        <lane id=":1045460814_7_0" index="0" speed="13.89" length="7.09" shape="2807.01,4628.18 2809.83,4628.21 2811.97,4629.14 2813.18,4630.66"/>
    </edge>
    <edge id=":1045460814_10" function="internal">
        <lane id=":1045460814_10_0" index="0" speed="13.89" length="3.20" shape="2813.18,4630.66 2813.42,4630.96 2814.19,4633.67"/>
    </edge>
    <edge id=":1045460814_8" function="internal">
        <lane id=":1045460814_8_0" index="0" speed="13.89" length="2.41" shape="2807.01,4628.18 2808.35,4628.84 2808.86,4629.60"/>
    </edge>
    <edge id=":1045460814_11" function="internal">
        <lane id=":1045460814_11_0" index="0" speed="13.89" length="2.41" shape="2808.86,4629.60 2808.56,4630.47 2807.44,4631.45"/>
    </edge>
    <edge id=":1045460837_0" function="internal">
        <lane id=":1045460837_0_0" index="0" speed="1.39" length="4.82" shape="2750.69,4118.77 2751.59,4117.59 2752.44,4117.23 2753.24,4117.69 2753.98,4118.98"/>
    </edge>
    <edge id=":1045460895_0" function="internal">
        <lane id=":1045460895_0_0" index="0" speed="13.89" length="4.82" shape="2768.16,4636.84 2766.82,4636.20 2766.30,4635.44 2766.59,4634.56 2767.70,4633.58"/>
    </edge>
    <edge id=":1045461025_0" function="internal">
        <lane id=":1045461025_0_0" index="0" speed="1.39" length="4.82" shape="2721.06,4117.33 2721.91,4116.10 2722.74,4115.70 2723.56,4116.12 2724.36,4117.37"/>
    </edge>
    <edge id=":1045461079_0" function="internal">
        <lane id=":1045461079_0_0" index="0" speed="13.89" length="4.82" shape="2781.65,3850.15 2782.22,3848.78 2782.94,3848.21 2783.83,3848.45 2784.89,3849.50"/>
    </edge>
    <edge id=":1045461261_0" function="internal">
        <lane id=":1045461261_0_0" index="0" speed="13.89" length="4.82" shape="2768.04,4715.28 2766.69,4714.65 2766.16,4713.90 2766.45,4713.02 2767.55,4712.02"/>
    </edge>
    <edge id=":1045461344_0" function="internal">
        <lane id=":1045461344_0_0" index="0" speed="1.39" length="4.82" shape="2724.31,4121.27 2723.47,4122.49 2722.64,4122.89 2721.82,4122.47 2721.01,4121.22"/>
    </edge>
    <edge id=":1045461347_0" function="internal">
        <lane id=":1045461347_0_0" index="0" speed="13.89" length="4.82" shape="2808.84,4711.67 2807.59,4710.76 2806.45,4710.15 2805.43,4709.83 2804.52,4709.81"/>
    </edge>
    <edge id=":1045461347_1" function="internal">
        <lane id=":1045461347_1_0" index="0" speed="13.89" length="9.07" shape="2808.84,4711.67 2807.59,4710.17 2807.08,4708.27 2807.32,4705.98 2808.29,4703.30"/>
    </edge>
    <edge id=":1045461347_2" function="internal">
        <lane id=":1045461347_2_0" index="0" speed="13.89" length="3.92" shape="2808.84,4711.67 2809.28,4709.98 2810.04,4709.20 2811.12,4709.34"/>
    </edge>
    <edge id=":1045461347_9" function="internal">
        <lane id=":1045461347_9_0" index="0" speed="13.89" length="1.75" shape="2811.12,4709.34 2812.51,4710.40"/>
    </edge>
    <edge id=":1045461347_3" function="internal">
        <lane id=":1045461347_3_0" index="0" speed="13.89" length="10.24" shape="2811.91,4703.32 2810.44,4705.90 2808.72,4707.83 2806.75,4709.14 2804.52,4709.81"/>
    </edge>
    <edge id=":1045461347_4" function="internal">
        <lane id=":1045461347_4_0" index="0" speed="13.89" length="7.69" shape="2811.91,4703.32 2811.12,4705.56 2810.95,4707.49 2811.41,4709.10 2812.51,4710.40"/>
    </edge>
    <edge id=":1045461347_5" function="internal">
        <lane id=":1045461347_5_0" index="0" speed="13.89" length="5.30" shape="2811.91,4703.32 2811.00,4704.68 2810.09,4705.13 2809.18,4704.67 2808.29,4703.30"/>
    </edge>
    <edge id=":1045461347_6" function="internal">
        <lane id=":1045461347_6_0" index="0" speed="13.89" length="5.58" shape="2804.03,4706.54 2805.40,4706.17 2806.57,4705.51 2807.53,4704.55 2808.29,4703.30"/>
    </edge>
    <edge id=":1045461347_7" function="internal">
        <lane id=":1045461347_7_0" index="0" speed="13.89" length="9.53" shape="2804.03,4706.54 2805.74,4706.61 2807.72,4707.27 2809.98,4708.54 2812.51,4710.40"/>
    </edge>
    <edge id=":1045461347_8" function="internal">
        <lane id=":1045461347_8_0" index="0" speed="13.89" length="2.41" shape="2804.03,4706.54 2805.38,4707.18 2805.91,4707.93"/>
    </edge>
    <edge id=":1045461347_10" function="internal">
        <lane id=":1045461347_10_0" index="0" speed="13.89" length="2.41" shape="2805.91,4707.93 2805.62,4708.81 2804.52,4709.81"/>
    </edge>
    <edge id=":1045461656_0" function="internal">
        <lane id=":1045461656_0_0" index="0" speed="1.39" length="4.82" shape="2753.77,4122.23 2752.87,4123.41 2752.02,4123.77 2751.22,4123.31 2750.48,4122.02"/>
    </edge>
    <edge id=":1045461725_0" function="internal">
        <lane id=":1045461725_0_0" index="0" speed="13.89" length="4.82" shape="2850.10,4679.71 2848.83,4680.49 2847.91,4680.52 2847.33,4679.81 2847.09,4678.34"/>
    </edge>
    <edge id=":1045461727_0" function="internal">
        <lane id=":1045461727_0_0" index="0" speed="13.89" length="4.82" shape="3012.21,4865.23 3013.52,4865.94 3014.01,4866.72 3013.68,4867.58 3012.52,4868.52"/>
    </edge>
    <edge id=":1045461872_0" function="internal">
        <lane id=":1045461872_0_0" index="0" speed="13.89" length="9.45" shape="2802.53,4632.09 2793.17,4633.35"/>
    </edge>
    <edge id=":1045461872_1" function="internal">
        <lane id=":1045461872_1_0" index="0" speed="13.89" length="7.11" shape="2802.53,4632.09 2799.71,4632.05 2797.58,4631.12 2796.36,4629.59"/>
    </edge>
    <edge id=":1045461872_9" function="internal">
        <lane id=":1045461872_9_0" index="0" speed="13.89" length="3.19" shape="2796.36,4629.59 2796.13,4629.30 2795.36,4626.59"/>
    </edge>
    <edge id=":1045461872_2" function="internal">
        <lane id=":1045461872_2_0" index="0" speed="13.89" length="2.41" shape="2802.53,4632.09 2801.20,4631.43 2800.68,4630.66"/>
    </edge>
    <edge id=":1045461872_10" function="internal">
        <lane id=":1045461872_10_0" index="0" speed="13.89" length="2.41" shape="2800.68,4630.66 2800.99,4629.79 2802.11,4628.82"/>
    </edge>
    <edge id=":1045461872_3" function="internal">
        <lane id=":1045461872_3_0" index="0" speed="13.89" length="4.99" shape="2798.63,4626.15 2799.00,4627.46 2799.70,4628.35 2800.74,4628.80 2802.11,4628.82"/>
    </edge>
    <edge id=":1045461872_4" function="internal">
        <lane id=":1045461872_4_0" index="0" speed="13.89" length="10.30" shape="2798.63,4626.15 2798.61,4628.97 2797.69,4631.11 2795.87,4632.57 2793.17,4633.35"/>
    </edge>
    <edge id=":1045461872_5" function="internal">
        <lane id=":1045461872_5_0" index="0" speed="13.89" length="4.82" shape="2798.63,4626.15 2797.98,4627.48 2797.21,4628.00 2796.34,4627.70 2795.36,4626.59"/>
    </edge>
    <edge id=":1045461872_6" function="internal">
        <lane id=":1045461872_6_0" index="0" speed="13.89" length="5.00" shape="2792.71,4630.08 2794.02,4629.70 2794.90,4628.99 2795.35,4627.96 2795.36,4626.59"/>
    </edge>
    <edge id=":1045461872_7" function="internal">
        <lane id=":1045461872_7_0" index="0" speed="13.89" length="9.48" shape="2792.71,4630.08 2802.11,4628.82"/>
    </edge>
    <edge id=":1045461872_8" function="internal">
        <lane id=":1045461872_8_0" index="0" speed="13.89" length="2.41" shape="2792.71,4630.08 2794.05,4630.73 2794.57,4631.49"/>
    </edge>