<routes>
    <vType id="typeWE" accel="0.8" decel="4.5" sigma="0.5" length="5" minGap="2.5" maxSpeed="16.67" guiShape="passenger"/>
    <vType id="typeNS" accel="0.8" decel="4.5" sigma="0.5" length="17" minGap="3" maxSpeed="25" guiShape="bus"/>

    <route id="right" edges="51o 1i 2o 52i" />
    <route id="left" edges="52o 2i 1o 51i" />
    <route id="down" edges="54o 4i 3o 53i" />
    <vehicle id="0" type="typeWE" route="right" depart="2" />
    <vehicle id="1" type="typeWE" route="right" depart="7" />
    <vehicle id="2" type="typeWE" route="left" depart="12" />
    <vehicle id="3" type="typeWE" route="right" depart="13" />
    <vehicle id="4" type="typeWE" route="left" depart="22" />
    <vehicle id="5" type="typeWE" route="right" depart="26" />
    <vehicle id="6" type="typeWE" route="right" depart="33" />
    <vehicle id="7" type="typeWE" route="left" depart="35" />
    <vehicle id="8" type="typeWE" route="left" depart="36" />
    <vehicle id="9" type="typeWE" route="right" depart="37" />
    <vehicle id="10" type="typeWE" route="right" depart="38" />
    <vehicle id="11" type="typeWE" route="right" depart="41" />
    <vehicle id="12" type="typeWE" route="right" depart="50" />
    <vehicle id="13" type="typeWE" route="left" depart="50" />
    <vehicle id="14" type="typeWE" route="right" depart="51" />
    <vehicle id="15" type="typeWE" route="right" depart="65" />
    <vehicle id="16" type="typeWE" route="right" depart="67" />
    <vehicle id="17" type="typeWE" route="left" depart="79" />
    <vehicle id="18" type="typeWE" route="right" depart="91" />
    <vehicle id="19" type="typeWE" route="right" depart="94" />
    <vehicle id="20" type="typeWE" route="left" depart="94" />
    <vehicle id="21" type="typeWE" route="left" depart="100" />
    <vehicle id="22" type="typeWE" route="right" depart="101" />
    <vehicle id="23" type="typeWE" route="left" depart="103" />
    <vehicle id="24" type="typeWE" route="left" depart="108" />
    <vehicle id="25" type="typeNS" route="down" depart="108" color="1,0,0"/>
    <vehicle id="26" type="typeWE" route="right" depart="110" />
    <vehicle id="27" type="typeWE" route="left" depart="113" />
    <vehicle id="28" type="typeWE" route="right" depart="114" />
    <vehicle id="29" type="typeWE" route="right" depart="120" />
    <vehicle id="30" type="typeWE" route="left" depart="126" />
    <vehicle id="31" type="typeWE" route="right" depart="131" />
    <vehicle id="32" type="typeWE" route="right" depart="134" />
    <vehicle id="33" type="typeWE" route="right" depart="141" />
    <vehicle id="34" type="typeWE" route="right" depart="142" />
    <vehicle id="35" type="typeWE" route="right" depart="151" />
    <vehicle id="36" type="typeWE" route="left" depart="151" />
    <vehicle id="37" type="typeWE" route="right" depart="154" />
    <vehicle id="38" type="typeWE" route="right" depart="157" />
    <vehicle id="39" type="typeWE" route="left" depart="161" />
    <vehicle id="40" type="typeWE" route="right" depart="163" />
    <vehicle id="41" type="typeWE" route="right" depart="172" />
    <vehicle id="42" type="typeWE" route="right" depart="181" />
    <vehicle id="43" type="typeWE" route="right" depart="182" />
    <vehicle id="44" type="typeWE" route="left" depart="187" />
    <vehicle id="45" type="typeWE" route="right" depart="194" />
    <vehicle id="46" type="typeWE" route="left" depart="207" />
    <vehicle id="47" type="typeWE" route="right" depart="216" />
    <vehicle id="48" type="typeWE" route="left" depart="225" />
    <vehicle id="49" type="typeWE" route="right" depart="227" />
    <vehicle id="50" type="typeWE" route="right" depart="228" />
    <vehicle id="51" type="typeWE" route="right" depart="232" />
    <vehicle id="52" type="typeWE" route="right" depart="234" />
    <vehicle id="53" type="typeWE" route="right" depart="241" />
    <vehicle id="54" type="typeWE" route="right" depart="243" />
    <vehicle id="55" type="typeWE" route="left" depart="246" />
    <vehicle id="56" type="typeWE" route="right" depart="250" />
    <vehicle id="57" type="typeNS" route="down" depart="253" color="1,0,0"/>
    <vehicle id="58" type="typeWE" route="right" depart="260" />
    <vehicle id="59" type="typeWE" route="left" depart="262" />
    <vehicle id="60" type="typeWE" route="right" depart="266" />
    <vehicle id="61" type="typeNS" route="down" depart="272" color="1,0,0"/>
    <vehicle id="62" type="typeWE" route="right" depart="277" />
    <vehicle id="63" type="typeNS" route="down" depart="304" color="1,0,0"/>
    <vehicle id="64" type="typeWE" route="left" depart="306" />
    <vehicle id="65" type="typeWE" route="right" depart="310" />
    <vehicle id="66" type="typeWE" route="right" depart="315" />
    <vehicle id="67" type="typeWE" route="left" depart="315" />
    <vehicle id="68" type="typeNS" route="down" depart="315" color="1,0,0"/>
    <vehicle id="69" type="typeWE" route="right" depart="317" />
    <vehicle id="70" type="typeWE" route="right" depart="318" />
    <vehicle id="71" type="typeWE" route="left" depart="319" />
    <vehicle id="72" type="typeWE" route="left" depart="324" />
    <vehicle id="73" type="typeWE" route="right" depart="326" />
    <vehicle id="74" type="typeWE" route="left" depart="332" />
    <vehicle id="75" type="typeWE" route="left" depart="336" />
    <vehicle id="76" type="typeWE" route="right" depart="351" />
    <vehicle id="77" type="typeWE" route="right" depart="355" />
    <vehicle id="78" type="typeWE" route="left" depart="357" />
    <vehicle id="79" type="typeWE" route="left" depart="358" />
    <vehicle id="80" type="typeWE" route="left" depart="373" />
    <vehicle id="81" type="typeWE" route="left" depart="376" />
    <vehicle id="82" type="typeNS" route="down" depart="380" color="1,0,0"/>
    <vehicle id="83" type="typeWE" route="left" depart="384" />
    <vehicle id="84" type="typeWE" route="left" depart="393" />
    <vehicle id="85" type="typeWE" route="right" depart="394" />
    <vehicle id="86" type="typeWE" route="left" depart="394" />
    <vehicle id="87" type="typeWE" route="left" depart="399" />
    <vehicle id="88" type="typeWE" route="left" depart="402" />
    <vehicle id="89" type="typeWE" route="right" depart="406" />
    <vehicle id="90" type="typeWE" route="left" depart="408" />
    <vehicle id="91" type="typeWE" route="right" depart="412" />
    <vehicle id="92" type="typeWE" route="left" depart="413" />
    <vehicle id="93" type="typeWE" route="left" depart="414" />
    <vehicle id="94" type="typeWE" route="right" depart="417" />
    <vehicle id="95" type="typeWE" route="left" depart="421" />
    <vehicle id="96" type="typeWE" route="left" depart="422" />
    <vehicle id="97" type="typeWE" route="right" depart="424" />
    <vehicle id="98" type="typeWE" route="left" depart="424" />
    <vehicle id="99" type="typeWE" route="right" depart="426" />
    <vehicle id="100" type="typeWE" route="right" depart="427" />
    <vehicle id="101" type="typeWE" route="right" depart="439" />
    <vehicle id="102" type="typeWE" route="left" depart="442" />
    <vehicle id="103" type="typeWE" route="left" depart="452" />
    <vehicle id="104" type="typeWE" route="right" depart="459" />
    <vehicle id="105" type="typeWE" route="right" depart="463" />
    <vehicle id="106" type="typeWE" route="left" depart="466" />
    <vehicle id="107" type="typeWE" route="left" depart="473" />
    <vehicle id="108" type="typeNS" route="down" depart="480" color="1,0,0"/>
    <vehicle id="109" type="typeNS" route="down" depart="487" color="1,0,0"/>
    <vehicle id="110" type="typeWE" route="left" depart="491" />
    <vehicle id="111" type="typeNS" route="down" depart="492" color="1,0,0"/>
    <vehicle id="112" type="typeWE" route="left" depart="493" />
    <vehicle id="113" type="typeWE" route="right" depart="494" />
    <vehicle id="114" type="typeWE" route="left" depart="498" />
    <vehicle id="115" type="typeNS" route="down" depart="502" color="1,0,0"/>
    <vehicle id="116" type="typeWE" route="left" depart="508" />
    <vehicle id="117" type="typeWE" route="left" depart="521" />
    <vehicle id="118" type="typeWE" route="right" depart="523" />
    <vehicle id="119" type="typeWE" route="right" depart="524" />
    <vehicle id="120" type="typeWE" route="left" depart="529" />
    <vehicle id="121" type="typeWE" route="left" depart="530" />
    <vehicle id="122" type="typeWE" route="left" depart="532" />
    <vehicle id="123" type="typeWE" route="left" depart="534" />
    <vehicle id="124" type="typeWE" route="right" depart="539" />
    <vehicle id="125" type="typeWE" route="right" depart="544" />
    <vehicle id="126" type="typeWE" route="right" depart="548" />
    <vehicle id="127" type="typeWE" route="right" depart="551" />
    <vehicle id="128" type="typeWE" route="left" depart="551" />
    <vehicle id="129" type="typeWE" route="left" depart="553" />
    <vehicle id="130" type="typeWE" route="left" depart="569" />
    <vehicle id="131" type="typeWE" route="left" depart="584" />
    <vehicle id="132" type="typeWE" route="left" depart="592" />
    <vehicle id="133" type="typeWE" route="left" depart="597" />
    <vehicle id="134" type="typeWE" route="right" depart="601" />
    <vehicle id="135" type="typeWE" route="right" depart="603" />
    <vehicle id="136" type="typeWE" route="right" depart="604" />
    <vehicle id="137" type="typeWE" route="left" depart="605" />
    <vehicle id="138" type="typeWE" route="right" depart="606" />
    <vehicle id="139" type="typeWE" route="right" depart="608" />
    <vehicle id="140" type="typeWE" route="right" depart="612" />
    <vehicle id="141" type="typeWE" route="left" depart="612" />
    <vehicle id="142" type="typeWE" route="left" depart="613" />
    <vehicle id="143" type="typeWE" route="right" depart="622" />
    <vehicle id="144" type="typeWE" route="right" depart="628" />
    <vehicle id="145" type="typeWE" route="right" depart="629" />
    <vehicle id="146" type="typeWE" route="right" depart="630" />
    <vehicle id="147" type="typeWE" route="left" depart="631" />
    <vehicle id="148" type="typeWE" route="right" depart="635" />
    <vehicle id="149" type="typeWE" route="left" depart="643" />
    <vehicle id="150" type="typeWE" route="left" depart="652" />
    <vehicle id="151" type="typeWE" route="right" depart="663" />
    <vehicle id="152" type="typeNS" route="down" depart="668" color="1,0,0"/>
    <vehicle id="153" type="typeWE" route="right" depart="670" />
    <vehicle id="154" type="typeWE" route="right" depart="682" />
    <vehicle id="155" type="typeWE" route="right" depart="685" />
    <vehicle id="156" type="typeWE" route="left" depart="685" />
    <vehicle id="157" type="typeWE" route="right" depart="696" />
    <vehicle id="158" type="typeWE" route="right" depart="698" />
    <vehicle id="159" type="typeWE" route="right" depart="710" />
    <vehicle id="160" type="typeWE" route="left" depart="720" />
    <vehicle id="161" type="typeNS" route="down" depart="721" color="1,0,0"/>
    <vehicle id="162" type="typeWE" route="right" depart="723" />
    <vehicle id="163" type="typeNS" route="down" depart="723" color="1,0,0"/>
    <vehicle id="164" type="typeWE" route="right" depart="727" />
    <vehicle id="165" type="typeWE" route="right" depart="737" />
    <vehicle id="166" type="typeWE" route="left" depart="743" />
    <vehicle id="167" type="typeNS" route="down" depart="744" color="1,0,0"/>
    <vehicle id="168" type="typeWE" route="right" depart="745" />
    <vehicle id="169" type="typeWE" route="right" depart="751" />
    <vehicle id="170" type="typeWE" route="left" depart="758" />
    <vehicle id="171" type="typeWE" route="left" depart="765" />
    <vehicle id="172" type="typeWE" route="left" depart="766" />
    <vehicle id="173" type="typeWE" route="right" depart="768" />
    <vehicle id="174" type="typeWE" route="right" depart="769" />
    <vehicle id="175" type="typeWE" route="right" depart="775" />
    <vehicle id="176" type="typeWE" route="left" depart="782" />
    <vehicle id="177" type="typeWE" route="right" depart="785" />
    <vehicle id="178" type="typeWE" route="left" depart="787" />
    <vehicle id="179" type="typeNS" route="down" depart="791" color="1,0,0"/>
    <vehicle id="180" type="typeWE" route="right" depart="793" />
    <vehicle id="181" type="typeWE" route="left" depart="793" />
    <vehicle id="182" type="typeWE" route="right" depart="795" />
    <vehicle id="183" type="typeWE" route="right" depart="810" />
    <vehicle id="184" type="typeWE" route="left" depart="818" />
    <vehicle id="185" type="typeWE" route="left" depart="819" />
    <vehicle id="186" type="typeWE" route="right" depart="822" />
    <vehicle id="187" type="typeWE" route="left" depart="824" />
    <vehicle id="188" type="typeNS" route="down" depart="826" color="1,0,0"/>
    <vehicle id="189" type="typeWE" route="right" depart="827" />
    <vehicle id="190" type="typeWE" route="right" depart="829" />
    <vehicle id="191" type="typeWE" route="left" depart="834" />
    <vehicle id="192" type="typeWE" route="right" depart="836" />
    <vehicle id="193" type="typeNS" route="down" depart="836" color="1,0,0"/>
    <vehicle id="194" type="typeWE" route="right" depart="838" />
    <vehicle id="195" type="typeWE" route="left" depart="845" />
    <vehicle id="196" type="typeWE" route="left" depart="846" />
    <vehicle id="197" type="typeNS" route="down" depart="848" color="1,0,0"/>
    <vehicle id="198" type="typeWE" route="right" depart="860" />
    <vehicle id="199" type="typeNS" route="down" depart="866" color="1,0,0"/>
    <vehicle id="200" type="typeWE" route="left" depart="876" />
    <vehicle id="201" type="typeNS" route="down" depart="878" color="1,0,0"/>
    <vehicle id="202" type="typeWE" route="right" depart="879" />
    <vehicle id="203" type="typeWE" route="left" depart="895" />
    <vehicle id="204" type="typeNS" route="down" depart="901" color="1,0,0"/>
    <vehicle id="205" type="typeWE" route="right" depart="903" />
    <vehicle id="206" type="typeNS" route="down" depart="906" color="1,0,0"/>
    <vehicle id="207" type="typeNS" route="down" depart="908" color="1,0,0"/>
    <vehicle id="208" type="typeWE" route="left" depart="911" />
    <vehicle id="209" type="typeWE" route="right" depart="917" />
    <vehicle id="210" type="typeNS" route="down" depart="918" color="1,0,0"/>
    <vehicle id="211" type="typeWE" route="right" depart="925" />
    <vehicle id="212" type="typeWE" route="left" depart="932" />
    <vehicle id="213" type="typeNS" route="down" depart="941" color="1,0,0"/>
    <vehicle id="214" type="typeWE" route="left" depart="943" />
    <vehicle id="215" type="typeWE" route="left" depart="983" />
    <vehicle id="216" type="typeWE" route="right" depart="1000" />
    <vehicle id="217" type="typeWE" route="left" depart="1002" />
    <vehicle id="218" type="typeWE" route="left" depart="1007" />
    <vehicle id="219" type="typeWE" route="right" depart="1012" />
    <vehicle id="220" type="typeWE" route="right" depart="1015" />
    <vehicle id="221" type="typeNS" route="down" depart="1015" color="1,0,0"/>
    <vehicle id="222" type="typeWE" route="left" depart="1021" />
    <vehicle id="223" type="typeWE" route="left" depart="1028" />
    <vehicle id="224" type="typeWE" route="right" depart="1053" />
    <vehicle id="225" type="typeWE" route="left" depart="1061" />
    <vehicle id="226" type="typeWE" route="left" depart="1064" />
    <vehicle id="227" type="typeNS" route="down" depart="1067" color="1,0,0"/>
    <vehicle id="228" type="typeWE" route="right" depart="1069" />
    <vehicle id="229" type="typeWE" route="left" depart="1071" />
    <vehicle id="230" type="typeWE" route="left" depart="1073" />
    <vehicle id="231" type="typeWE" route="left" depart="1077" />
    <vehicle id="232" type="typeWE" route="left" depart="1079" />
    <vehicle id="233" type="typeWE" route="right" depart="1081" />
    <vehicle id="234" type="typeWE" route="left" depart="1084" />
    <vehicle id="235" type="typeWE" route="left" depart="1085" />
    <vehicle id="236" type="typeWE" route="right" depart="1090" />
    <vehicle id="237" type="typeWE" route="right" depart="1100" />
    <vehicle id="238" type="typeWE" route="left" depart="1111" />
    <vehicle id="239" type="typeNS" route="down" depart="1111" color="1,0,0"/>
    <vehicle id="240" type="typeWE" route="left" depart="1117" />
    <vehicle id="241" type="typeWE" route="right" depart="1119" />
    <vehicle id="242" type="typeWE" route="left" depart="1122" />
    <vehicle id="243" type="typeWE" route="right" depart="1123" />
    <vehicle id="244" type="typeWE" route="right" depart="1126" />
    <vehicle id="245" type="typeWE" route="left" depart="1127" />
    <vehicle id="246" type="typeNS" route="down" depart="1127" color="1,0,0"/>
    <vehicle id="247" type="typeWE" route="left" depart="1134" />
    <vehicle id="248" type="typeWE" route="right" depart="1136" />
    <vehicle id="249" type="typeWE" route="right" depart="1138" />
    <vehicle id="250" type="typeWE" route="right" depart="1140" />
    <vehicle id="251" type="typeWE" route="right" depart="1141" />
    <vehicle id="252" type="typeWE" route="left" depart="1143" />
    <vehicle id="253" type="typeWE" route="right" depart="1144" />
    <vehicle id="254" type="typeWE" route="right" depart="1145" />
    <vehicle id="255" type="typeNS" route="down" depart="1152" color="1,0,0"/>
    <vehicle id="256" type="typeWE" route="left" depart="1161" />
    <vehicle id="257" type="typeNS" route="down" depart="1161" color="1,0,0"/>
    <vehicle id="258" type="typeWE" route="left" depart="1167" />
    <vehicle id="259" type="typeWE" route="left" depart="1168" />
    <vehicle id="260" type="typeWE" route="left" depart="1173" />
    <vehicle id="261" type="typeNS" route="down" depart="1173" color="1,0,0"/>
    <vehicle id="262" type="typeWE" route="right" depart="1177" />
    <vehicle id="263" type="typeWE" route="left" depart="1181" />
    <vehicle id="264" type="typeWE" route="right" depart="1183" />
    <vehicle id="265" type="typeWE" route="right" depart="1186" />
    <vehicle id="266" type="typeWE" route="right" depart="1187" />
    <vehicle id="267" type="typeWE" route="left" depart="1188" />
    <vehicle id="268" type="typeNS" route="down" depart="1195" color="1,0,0"/>
    <vehicle id="269" type="typeWE" route="right" depart="1198" />
    <vehicle id="270" type="typeWE" route="left" depart="1199" />
    <vehicle id="271" type="typeWE" route="right" depart="1203" />
    <vehicle id="272" type="typeNS" route="down" depart="1204" color="1,0,0"/>
    <vehicle id="273" type="typeWE" route="right" depart="1205" />
    <vehicle id="274" type="typeWE" route="left" depart="1206" />
    <vehicle id="275" type="typeWE" route="left" depart="1210" />
    <vehicle id="276" type="typeWE" route="right" depart="1211" />
    <vehicle id="277" type="typeWE" route="right" depart="1213" />
    <vehicle id="278" type="typeWE" route="left" depart="1214" />
    <vehicle id="279" type="typeWE" route="left" depart="1215" />
    <vehicle id="280" type="typeWE" route="left" depart="1218" />
    <vehicle id="281" type="typeWE" route="left" depart="1224" />
    <vehicle id="282" type="typeWE" route="right" depart="1229" />
    <vehicle id="283" type="typeWE" route="right" depart="1242" />
    <vehicle id="284" type="typeWE" route="right" depart="1254" />
    <vehicle id="285" type="typeWE" route="left" depart="1256" />
    <vehicle id="286" type="typeWE" route="left" depart="1262" />
    <vehicle id="287" type="typeWE" route="right" depart="1269" />
    <vehicle id="288" type="typeNS" route="down" depart="1271" color="1,0,0"/>
    <vehicle id="289" type="typeWE" route="right" depart="1272" />
    <vehicle id="290" type="typeNS" route="down" depart="1272" color="1,0,0"/>
    <vehicle id="291" type="typeWE" route="right" depart="1275" />
    <vehicle id="292" type="typeWE" route="right" depart="1276" />
    <vehicle id="293" type="typeWE" route="left" depart="1282" />
    <vehicle id="294" type="typeNS" route="down" depart="1286" color="1,0,0"/>
    <vehicle id="295" type="typeWE" route="left" depart="1291" />
    <vehicle id="296" type="typeWE" route="right" depart="1293" />
    <vehicle id="297" type="typeNS" route="down" depart="1293" color="1,0,0"/>
    <vehicle id="298" type="typeNS" route="down" depart="1294" color="1,0,0"/>
    <vehicle id="299" type="typeWE" route="left" depart="1296" />
    <vehicle id="300" type="typeWE" route="left" depart="1299" />
    <vehicle id="301" type="typeWE" route="left" depart="1304" />
    <vehicle id="302" type="typeWE" route="left" depart="1305" />
    <vehicle id="303" type="typeWE" route="right" depart="1307" />
    <vehicle id="304" type="typeNS" route="down" depart="1309" color="1,0,0"/>
    <vehicle id="305" type="typeWE" route="right" depart="1311" />
    <vehicle id="306" type="typeWE" route="left" depart="1317" />
    <vehicle id="307" type="typeWE" route="left" depart="1320" />
    <vehicle id="308" type="typeNS" route="down" depart="1329" color="1,0,0"/>
    <vehicle id="309" type="typeNS" route="down" depart="1336" color="1,0,0"/>
    <vehicle id="310" type="typeWE" route="right" depart="1338" />
    <vehicle id="311" type="typeWE" route="left" depart="1341" />
    <vehicle id="312" type="typeNS" route="down" depart="1342" color="1,0,0"/>
    <vehicle id="313" type="typeWE" route="right" depart="1346" />
    <vehicle id="314" type="typeNS" route="down" depart="1347" color="1,0,0"/>
    <vehicle id="315" type="typeWE" route="right" depart="1349" />
    <vehicle id="316" type="typeWE" route="left" depart="1367" />
    <vehicle id="317" type="typeWE" route="left" depart="1371" />
    <vehicle id="318" type="typeWE" route="left" depart="1381" />
    <vehicle id="319" type="typeWE" route="left" depart="1384" />
    <vehicle id="320" type="typeNS" route="down" depart="1396" color="1,0,0"/>
    <vehicle id="321" type="typeWE" route="left" depart="1402" />
    <vehicle id="322" type="typeWE" route="left" depart="1409" />
    <vehicle id="323" type="typeWE" route="right" depart="1413" />
    <vehicle id="324" type="typeWE" route="left" depart="1413" />
    <vehicle id="325" type="typeWE" route="right" depart="1415" />
    <vehicle id="326" type="typeWE" route="left" depart="1427" />
    <vehicle id="327" type="typeNS" route="down" depart="1436" color="1,0,0"/>
    <vehicle id="328" type="typeNS" route="down" depart="1438" color="1,0,0"/>
    <vehicle id="329" type="typeWE" route="left" depart="1443" />
    <vehicle id="330" type="typeWE" route="left" depart="1444" />
    <vehicle id="331" type="typeWE" route="right" depart="1463" />
    <vehicle id="332" type="typeWE" route="right" depart="1466" />
    <vehicle id="333" type="typeWE" route="right" depart="1473" />
    <vehicle id="334" type="typeWE" route="right" depart="1489" />
    <vehicle id="335" type="typeWE" route="left" depart="1489" />
    <vehicle id="336" type="typeWE" route="left" depart="1496" />
    <vehicle id="337" type="typeNS" route="down" depart="1502" color="1,0,0"/>
    <vehicle id="338" type="typeWE" route="right" depart="1505" />
    <vehicle id="339" type="typeWE" route="left" depart="1510" />
    <vehicle id="340" type="typeWE" route="left" depart="1514" />
    <vehicle id="341" type="typeWE" route="left" depart="1521" />
    <vehicle id="342" type="typeWE" route="right" depart="1525" />
    <vehicle id="343" type="typeWE" route="left" depart="1527" />
    <vehicle id="344" type="typeWE" route="right" depart="1528" />
    <vehicle id="345" type="typeWE" route="left" depart="1528" />
    <vehicle id="346" type="typeWE" route="right" depart="1532" />
    <vehicle id="347" type="typeWE" route="left" depart="1533" />
    <vehicle id="348" type="typeNS" route="down" depart="1534" color="1,0,0"/>
    <vehicle id="349" type="typeWE" route="left" depart="1539" />
    <vehicle id="350" type="typeWE" route="left" depart="1544" />
    <vehicle id="351" type="typeNS" route="down" depart="1544" color="1,0,0"/>
    <vehicle id="352" type="typeWE" route="right" depart="1550" />
    <vehicle id="353" type="typeWE" route="left" depart="1562" />
    <vehicle id="354" type="typeWE" route="right" depart="1568" />
    <vehicle id="355" type="typeWE" route="right" depart="1572" />
    <vehicle id="356" type="typeWE" route="right" depart="1577" />
    <vehicle id="357" type="typeWE" route="left" depart="1580" />
    <vehicle id="358" type="typeWE" route="right" depart="1582" />
    <vehicle id="359" type="typeWE" route="left" depart="1583" />
    <vehicle id="360" type="typeWE" route="right" depart="1585" />
    <vehicle id="361" type="typeWE" route="left" depart="1589" />
    <vehicle id="362" type="typeWE" route="right" depart="1594" />
    <vehicle id="363" type="typeWE" route="left" depart="1594" />
    <vehicle id="364" type="typeWE" route="left" depart="1597" />
    <vehicle id="365" type="typeNS" route="down" depart="1598" color="1,0,0"/>
    <vehicle id="366" type="typeNS" route="down" depart="1599" color="1,0,0"/>
    <vehicle id="367" type="typeWE" route="right" depart="1604" />
    <vehicle id="368" type="typeWE" route="right" depart="1608" />
    <vehicle id="369" type="typeWE" route="right" depart="1613" />
    <vehicle id="370" type="typeWE" route="left" depart="1617" />
    <vehicle id="371" type="typeWE" route="right" depart="1621" />
    <vehicle id="372" type="typeWE" route="right" depart="1639" />
    <vehicle id="373" type="typeWE" route="left" depart="1639" />
    <vehicle id="374" type="typeWE" route="left" depart="1640" />
    <vehicle id="375" type="typeWE" route="right" depart="1641" />
    <vehicle id="376" type="typeWE" route="left" depart="1642" />
    <vehicle id="377" type="typeWE" route="left" depart="1643" />
    <vehicle id="378" type="typeWE" route="left" depart="1650" />
    <vehicle id="379" type="typeWE" route="left" depart="1655" />
    <vehicle id="380" type="typeWE" route="left" depart="1665" />
    <vehicle id="381" type="typeWE" route="left" depart="1671" />
    <vehicle id="382" type="typeWE" route="right" depart="1673" />
    <vehicle id="383" type="typeWE" route="right" depart="1683" />
    <vehicle id="384" type="typeWE" route="left" depart="1693" />
    <vehicle id="385" type="typeWE" route="right" depart="1694" />
    <vehicle id="386" type="typeWE" route="right" depart="1696" />
    <vehicle id="387" type="typeWE" route="left" depart="1696" />
    <vehicle id="388" type="typeWE" route="left" depart="1709" />
    <vehicle id="389" type="typeWE" route="left" depart="1720" />
    <vehicle id="390" type="typeWE" route="right" depart="1732" />
    <vehicle id="391" type="typeWE" route="right" depart="1733" />
    <vehicle id="392" type="typeNS" route="down" depart="1736" color="1,0,0"/>
    <vehicle id="393" type="typeWE" route="left" depart="1737" />
    <vehicle id="394" type="typeWE" route="left" depart="1750" />
    <vehicle id="395" type="typeWE" route="right" depart="1765" />
    <vehicle id="396" type="typeWE" route="right" depart="1771" />
    <vehicle id="397" type="typeWE" route="left" depart="1772" />
    <vehicle id="398" type="typeWE" route="left" depart="1774" />
    <vehicle id="399" type="typeNS" route="down" depart="1775" color="1,0,0"/>
    <vehicle id="400" type="typeWE" route="right" depart="1779" />
    <vehicle id="401" type="typeWE" route="left" depart="1785" />
    <vehicle id="402" type="typeWE" route="right" depart="1788" />
    <vehicle id="403" type="typeWE" route="left" depart="1790" />
    <vehicle id="404" type="typeWE" route="left" depart="1795" />
    <vehicle id="405" type="typeWE" route="left" depart="1798" />
    <vehicle id="406" type="typeWE" route="right" depart="1810" />
    <vehicle id="407" type="typeWE" route="left" depart="1810" />
    <vehicle id="408" type="typeNS" route="down" depart="1820" color="1,0,0"/>
    <vehicle id="409" type="typeWE" route="left" depart="1830" />
    <vehicle id="410" type="typeWE" route="right" depart="1833" />
    <vehicle id="411" type="typeWE" route="right" depart="1835" />
    <vehicle id="412" type="typeWE" route="left" depart="1839" />
    <vehicle id="413" type="typeNS" route="down" depart="1841" color="1,0,0"/>
    <vehicle id="414" type="typeWE" route="left" depart="1842" />
    <vehicle id="415" type="typeWE" route="left" depart="1845" />
    <vehicle id="416" type="typeWE" route="left" depart="1846" />
    <vehicle id="417" type="typeWE" route="left" depart="1848" />
    <vehicle id="418" type="typeWE" route="right" depart="1854" />
    <vehicle id="419" type="typeWE" route="right" depart="1855" />
    <vehicle id="420" type="typeWE" route="right" depart="1858" />
    <vehicle id="421" type="typeWE" route="right" depart="1867" />
    <vehicle id="422" type="typeWE" route="left" depart="1871" />
    <vehicle id="423" type="typeNS" route="down" depart="1876" color="1,0,0"/>
    <vehicle id="424" type="typeNS" route="down" depart="1879" color="1,0,0"/>
    <vehicle id="425" type="typeWE" route="right" depart="1895" />
    <vehicle id="426" type="typeWE" route="right" depart="1900" />
    <vehicle id="427" type="typeWE" route="right" depart="1904" />
    <vehicle id="428" type="typeWE" route="left" depart="1905" />
    <vehicle id="429" type="typeWE" route="right" depart="1910" />
    <vehicle id="430" type="typeWE" route="right" depart="1914" />
    <vehicle id="431" type="typeWE" route="left" depart="1914" />
    <vehicle id="432" type="typeWE" route="right" depart="1928" />
    <vehicle id="433" type="typeWE" route="right" depart="1930" />
    <vehicle id="434" type="typeWE" route="left" depart="1932" />
    <vehicle id="435" type="typeWE" route="right" depart="1933" />
    <vehicle id="436" type="typeWE" route="left" depart="1933" />
    <vehicle id="437" type="typeWE" route="right" depart="1941" />
    <vehicle id="438" type="typeNS" route="down" depart="1941" color="1,0,0"/>