<routes>
    <vType id="typeWE" accel="0.8" decel="4.5" sigma="0.5" length="5" minGap="2.5" maxSpeed="16.67" guiShape="passenger"/>
    <vType id="typeNS" accel="0.8" decel="4.5" sigma="0.5" length="17" minGap="3" maxSpeed="25" guiShape="bus"/>

    <route id="right" edges="51o 1i 2o 52i" />
    <route id="left" edges="52o 2i 1o 51i" />
    <route id="down" edges="54o 4i 3o 53i" />
    <vehicle id="0" type="typeWE" route="left" depart="2" />
    <vehicle id="1" type="typeWE" route="right" depart="12" />
    <vehicle id="2" type="typeWE" route="right" depart="15" />
    <vehicle id="3" type="typeWE" route="left" depart="15" />
    <vehicle id="4" type="typeWE" route="left" depart="19" />
    <vehicle id="5" type="typeWE" route="left" depart="27" />
    <vehicle id="6" type="typeWE" route="left" depart="28" />
    <vehicle id="7" type="typeNS" route="down" depart="29" color="1,0,0"/>
    <vehicle id="8" type="typeWE" route="right" depart="30" />
    <vehicle id="9" type="typeWE" route="right" depart="31" />
    <vehicle id="10" type="typeWE" route="left" depart="31" />
    <vehicle id="11" type="typeWE" route="right" depart="40" />
    <vehicle id="12" type="typeWE" route="left" depart="51" />
    <vehicle id="13" type="typeWE" route="right" depart="60" />
    <vehicle id="14" type="typeWE" route="right" depart="82" />
    <vehicle id="15" type="typeWE" route="left" depart="87" />
    <vehicle id="16" type="typeNS" route="down" depart="91" color="1,0,0"/>
    <vehicle id="17" type="typeWE" route="right" depart="94" />
    <vehicle id="18" type="typeWE" route="left" depart="97" />
    <vehicle id="19" type="typeWE" route="left" depart="102" />
    <vehicle id="20" type="typeNS" route="down" depart="104" color="1,0,0"/>
    <vehicle id="21" type="typeNS" route="down" depart="109" color="1,0,0"/>
    <vehicle id="22" type="typeWE" route="left" depart="111" />
    <vehicle id="23" type="typeWE" route="left" depart="112" />
    <vehicle id="24" type="typeWE" route="right" depart="121" />
    <vehicle id="25" type="typeWE" route="right" depart="134" />
    <vehicle id="26" type="typeWE" route="left" depart="140" />
    <vehicle id="27" type="typeWE" route="left" depart="145" />
    <vehicle id="28" type="typeWE" route="right" depart="146" />
    <vehicle id="29" type="typeNS" route="down" depart="157" color="1,0,0"/>
    <vehicle id="30" type="typeWE" route="right" depart="158" />
    <vehicle id="31" type="typeWE" route="left" depart="160" />
    <vehicle id="32" type="typeWE" route="left" depart="161" />
    <vehicle id="33" type="typeWE" route="right" depart="173" />
    <vehicle id="34" type="typeNS" route="down" depart="173" color="1,0,0"/>
    <vehicle id="35" type="typeWE" route="left" depart="174" />
    <vehicle id="36" type="typeNS" route="down" depart="176" color="1,0,0"/>
    <vehicle id="37" type="typeWE" route="right" depart="182" />
    <vehicle id="38" type="typeWE" route="left" depart="182" />
    <vehicle id="39" type="typeWE" route="right" depart="188" />
    <vehicle id="40" type="typeWE" route="right" depart="190" />
    <vehicle id="41" type="typeNS" route="down" depart="195" color="1,0,0"/>
    <vehicle id="42" type="typeWE" route="right" depart="199" />
    <vehicle id="43" type="typeWE" route="right" depart="203" />
    <vehicle id="44" type="typeWE" route="left" depart="203" />
    <vehicle id="45" type="typeWE" route="left" depart="209" />
    <vehicle id="46" type="typeWE" route="left" depart="214" />
    <vehicle id="47" type="typeWE" route="right" depart="215" />
    <vehicle id="48" type="typeWE" route="right" depart="217" />
    <vehicle id="49" type="typeWE" route="right" depart="218" />
    <vehicle id="50" type="typeWE" route="right" depart="220" />
    <vehicle id="51" type="typeWE" route="left" depart="220" />
    <vehicle id="52" type="typeWE" route="left" depart="230" />
    <vehicle id="53" type="typeWE" route="right" depart="240" />
    <vehicle id="54" type="typeWE" route="left" depart="242" />
    <vehicle id="55" type="typeWE" route="right" depart="245" />
    <vehicle id="56" type="typeWE" route="right" depart="248" />
    <vehicle id="57" type="typeWE" route="left" depart="250" />
    <vehicle id="58" type="typeWE" route="left" depart="251" />
    <vehicle id="59" type="typeWE" route="right" depart="252" />
    <vehicle id="60" type="typeWE" route="left" depart="252" />
    <vehicle id="61" type="typeWE" route="right" depart="265" />
    <vehicle id="62" type="typeWE" route="left" depart="267" />
    <vehicle id="63" type="typeNS" route="down" depart="271" color="1,0,0"/>
    <vehicle id="64" type="typeWE" route="right" depart="277" />
    <vehicle id="65" type="typeWE" route="right" depart="287" />
    <vehicle id="66" type="typeWE" route="right" depart="293" />
    <vehicle id="67" type="typeWE" route="right" depart="294" />
    <vehicle id="68" type="typeWE" route="left" depart="303" />
    <vehicle id="69" type="typeNS" route="down" depart="316" color="1,0,0"/>
    <vehicle id="70" type="typeWE" route="right" depart="317" />
    <vehicle id="71" type="typeNS" route="down" depart="318" color="1,0,0"/>
    <vehicle id="72" type="typeWE" route="right" depart="323" />
    <vehicle id="73" type="typeWE" route="left" depart="326" />
    <vehicle id="74" type="typeWE" route="right" depart="329" />
    <vehicle id="75" type="typeWE" route="right" depart="334" />
    <vehicle id="76" type="typeWE" route="right" depart="336" />
    <vehicle id="77" type="typeWE" route="left" depart="341" />
    <vehicle id="78" type="typeWE" route="left" depart="343" />
    <vehicle id="79" type="typeWE" route="left" depart="344" />
    <vehicle id="80" type="typeWE" route="right" depart="347" />
    <vehicle id="81" type="typeWE" route="right" depart="353" />
    <vehicle id="82" type="typeWE" route="right" depart="361" />
    <vehicle id="83" type="typeNS" route="down" depart="363" color="1,0,0"/>
    <vehicle id="84" type="typeWE" route="right" depart="365" />
    <vehicle id="85" type="typeWE" route="right" depart="373" />
    <vehicle id="86" type="typeNS" route="down" depart="383" color="1,0,0"/>
    <vehicle id="87" type="typeWE" route="right" depart="395" />
    <vehicle id="88" type="typeWE" route="right" depart="403" />
    <vehicle id="89" type="typeWE" route="right" depart="410" />
    <vehicle id="90" type="typeNS" route="down" depart="410" color="1,0,0"/>
    <vehicle id="91" type="typeWE" route="left" depart="415" />
    <vehicle id="92" type="typeWE" route="right" depart="419" />
    <vehicle id="93" type="typeWE" route="right" depart="427" />
    <vehicle id="94" type="typeWE" route="right" depart="430" />
    <vehicle id="95" type="typeWE" route="right" depart="437" />
    <vehicle id="96" type="typeNS" route="down" depart="439" color="1,0,0"/>
    <vehicle id="97" type="typeWE" route="right" depart="440" />
    <vehicle id="98" type="typeWE" route="left" depart="442" />
    <vehicle id="99" type="typeWE" route="right" depart="447" />
    <vehicle id="100" type="typeWE" route="left" depart="470" />
    <vehicle id="101" type="typeWE" route="right" depart="476" />
    <vehicle id="102" type="typeNS" route="down" depart="476" color="1,0,0"/>
    <vehicle id="103" type="typeWE" route="left" depart="478" />
    <vehicle id="104" type="typeWE" route="right" depart="483" />
    <vehicle id="105" type="typeWE" route="left" depart="484" />
    <vehicle id="106" type="typeWE" route="left" depart="486" />
    <vehicle id="107" type="typeWE" route="right" depart="487" />
    <vehicle id="108" type="typeNS" route="down" depart="489" color="1,0,0"/>
    <vehicle id="109" type="typeWE" route="left" depart="492" />
    <vehicle id="110" type="typeWE" route="right" depart="493" />
    <vehicle id="111" type="typeWE" route="right" depart="498" />
    <vehicle id="112" type="typeWE" route="right" depart="500" />
    <vehicle id="113" type="typeWE" route="right" depart="501" />
    <vehicle id="114" type="typeWE" route="left" depart="509" />
    <vehicle id="115" type="typeWE" route="left" depart="516" />
    <vehicle id="116" type="typeWE" route="right" depart="518" />
    <vehicle id="117" type="typeNS" route="down" depart="520" color="1,0,0"/>
    <vehicle id="118" type="typeWE" route="right" depart="524" />
    <vehicle id="119" type="typeWE" route="right" depart="527" />
    <vehicle id="120" type="typeWE" route="left" depart="529" />
    <vehicle id="121" type="typeWE" route="left" depart="531" />
    <vehicle id="122" type="typeWE" route="right" depart="532" />
    <vehicle id="123" type="typeWE" route="left" depart="533" />
    <vehicle id="124" type="typeWE" route="left" depart="534" />
    <vehicle id="125" type="typeWE" route="left" depart="537" />
    <vehicle id="126" type="typeWE" route="right" depart="540" />
    <vehicle id="127" type="typeWE" route="right" depart="542" />
    <vehicle id="128" type="typeNS" route="down" depart="542" color="1,0,0"/>
    <vehicle id="129" type="typeWE" route="right" depart="544" />
    <vehicle id="130" type="typeWE" route="left" depart="544" />
    <vehicle id="131" type="typeNS" route="down" depart="546" color="1,0,0"/>
    <vehicle id="132" type="typeNS" route="down" depart="550" color="1,0,0"/>
    <vehicle id="133" type="typeWE" route="right" depart="553" />
    <vehicle id="134" type="typeWE" route="right" depart="556" />
    <vehicle id="135" type="typeWE" route="left" depart="557" />
    <vehicle id="136" type="typeNS" route="down" depart="559" color="1,0,0"/>
    <vehicle id="137" type="typeWE" route="left" depart="576" />
    <vehicle id="138" type="typeWE" route="right" depart="578" />
    <vehicle id="139" type="typeNS" route="down" depart="579" color="1,0,0"/>
    <vehicle id="140" type="typeNS" route="down" depart="582" color="1,0,0"/>
    <vehicle id="141" type="typeWE" route="right" depart="592" />
    <vehicle id="142" type="typeWE" route="right" depart="602" />
    <vehicle id="143" type="typeNS" route="down" depart="607" color="1,0,0"/>
    <vehicle id="144" type="typeWE" route="right" depart="611" />
    <vehicle id="145" type="typeWE" route="right" depart="613" />
    <vehicle id="146" type="typeWE" route="left" depart="615" />
    <vehicle id="147" type="typeNS" route="down" depart="615" color="1,0,0"/>
    <vehicle id="148" type="typeWE" route="right" depart="619" />
    <vehicle id="149" type="typeWE" route="right" depart="625" />
    <vehicle id="150" type="typeWE" route="right" depart="633" />
    <vehicle id="151" type="typeWE" route="left" depart="639" />
    <vehicle id="152" type="typeWE" route="right" depart="640" />
    <vehicle id="153" type="typeWE" route="left" depart="648" />
    <vehicle id="154" type="typeWE" route="left" depart="653" />
    <vehicle id="155" type="typeWE" route="right" depart="655" />
    <vehicle id="156" type="typeWE" route="right" depart="663" />
    <vehicle id="157" type="typeWE" route="right" depart="671" />
    <vehicle id="158" type="typeWE" route="left" depart="677" />
    <vehicle id="159" type="typeWE" route="left" depart="678" />
    <vehicle id="160" type="typeWE" route="right" depart="679" />
    <vehicle id="161" type="typeWE" route="right" depart="687" />
    <vehicle id="162" type="typeWE" route="left" depart="692" />
    <vehicle id="163" type="typeWE" route="right" depart="695" />
    <vehicle id="164" type="typeWE" route="left" depart="695" />
    <vehicle id="165" type="typeWE" route="right" depart="696" />
    <vehicle id="166" type="typeNS" route="down" depart="710" color="1,0,0"/>
    <vehicle id="167" type="typeWE" route="left" depart="713" />
    <vehicle id="168" type="typeWE" route="right" depart="714" />
    <vehicle id="169" type="typeNS" route="down" depart="714" color="1,0,0"/>
    <vehicle id="170" type="typeWE" route="right" depart="717" />
    <vehicle id="171" type="typeWE" route="left" depart="717" />
    <vehicle id="172" type="typeWE" route="right" depart="722" />
    <vehicle id="173" type="typeWE" route="right" depart="727" />
    <vehicle id="174" type="typeWE" route="right" depart="730" />
    <vehicle id="175" type="typeWE" route="left" depart="737" />
    <vehicle id="176" type="typeNS" route="down" depart="742" color="1,0,0"/>
    <vehicle id="177" type="typeWE" route="right" depart="747" />
    <vehicle id="178" type="typeNS" route="down" depart="756" color="1,0,0"/>
    <vehicle id="179" type="typeWE" route="right" depart="772" />
    <vehicle id="180" type="typeWE" route="left" depart="772" />
    <vehicle id="181" type="typeWE" route="left" depart="773" />
    <vehicle id="182" type="typeWE" route="right" depart="777" />
    <vehicle id="183" type="typeWE" route="right" depart="786" />
    <vehicle id="184" type="typeWE" route="right" depart="791" />
    <vehicle id="185" type="typeWE" route="right" depart="797" />
    <vehicle id="186" type="typeWE" route="left" depart="799" />
    <vehicle id="187" type="typeWE" route="left" depart="805" />
    <vehicle id="188" type="typeWE" route="right" depart="807" />
    <vehicle id="189" type="typeWE" route="right" depart="809" />
    <vehicle id="190" type="typeWE" route="right" depart="819" />
    <vehicle id="191" type="typeWE" route="right" depart="823" />
    <vehicle id="192" type="typeWE" route="right" depart="824" />
    <vehicle id="193" type="typeWE" route="left" depart="828" />
    <vehicle id="194" type="typeWE" route="left" depart="831" />
    <vehicle id="195" type="typeWE" route="left" depart="840" />
    <vehicle id="196" type="typeWE" route="right" depart="844" />
    <vehicle id="197" type="typeNS" route="down" depart="845" color="1,0,0"/>
    <vehicle id="198" type="typeWE" route="right" depart="846" />
    <vehicle id="199" type="typeWE" route="left" depart="859" />
    <vehicle id="200" type="typeNS" route="down" depart="859" color="1,0,0"/>
    <vehicle id="201" type="typeWE" route="right" depart="861" />
    <vehicle id="202" type="typeWE" route="right" depart="864" />
    <vehicle id="203" type="typeWE" route="left" depart="864" />
    <vehicle id="204" type="typeWE" route="left" depart="866" />
    <vehicle id="205" type="typeNS" route="down" depart="866" color="1,0,0"/>
    <vehicle id="206" type="typeWE" route="right" depart="867" />
    <vehicle id="207" type="typeWE" route="right" depart="869" />
    <vehicle id="208" type="typeNS" route="down" depart="869" color="1,0,0"/>
    <vehicle id="209" type="typeWE" route="left" depart="870" />
    <vehicle id="210" type="typeNS" route="down" depart="871" color="1,0,0"/>
    <vehicle id="211" type="typeWE" route="right" depart="877" />
    <vehicle id="212" type="typeWE" route="right" depart="881" />
    <vehicle id="213" type="typeWE" route="right" depart="883" />
    <vehicle id="214" type="typeWE" route="left" depart="883" />
    <vehicle id="215" type="typeWE" route="left" depart="885" />
    <vehicle id="216" type="typeWE" route="right" depart="887" />
    <vehicle id="217" type="typeWE" route="right" depart="888" />
    <vehicle id="218" type="typeWE" route="right" depart="890" />
    <vehicle id="219" type="typeNS" route="down" depart="891" color="1,0,0"/>
    <vehicle id="220" type="typeNS" route="down" depart="892" color="1,0,0"/>
    <vehicle id="221" type="typeWE" route="right" depart="897" />
    <vehicle id="222" type="typeWE" route="right" depart="906" />
    <vehicle id="223" type="typeWE" route="right" depart="907" />
    <vehicle id="224" type="typeWE" route="left" depart="917" />
    <vehicle id="225" type="typeWE" route="left" depart="918" />
    <vehicle id="226" type="typeWE" route="left" depart="922" />
    <vehicle id="227" type="typeWE" route="left" depart="923" />
    <vehicle id="228" type="typeWE" route="right" depart="925" />
    <vehicle id="229" type="typeWE" route="left" depart="926" />
    <vehicle id="230" type="typeNS" route="down" depart="929" color="1,0,0"/>
    <vehicle id="231" type="typeWE" route="right" depart="933" />
    <vehicle id="232" type="typeWE" route="left" depart="935" />
    <vehicle id="233" type="typeWE" route="left" depart="939" />
    <vehicle id="234" type="typeWE" route="right" depart="943" />
    <vehicle id="235" type="typeWE" route="left" depart="945" />
    <vehicle id="236" type="typeWE" route="left" depart="947" />
    <vehicle id="237" type="typeWE" route="left" depart="948" />
    <vehicle id="238" type="typeNS" route="down" depart="951" color="1,0,0"/>
    <vehicle id="239" type="typeWE" route="right" depart="967" />
    <vehicle id="240" type="typeWE" route="left" depart="968" />
    <vehicle id="241" type="typeWE" route="left" depart="973" />
    <vehicle id="242" type="typeWE" route="left" depart="981" />
    <vehicle id="243" type="typeWE" route="right" depart="987" />
    <vehicle id="244" type="typeWE" route="right" depart="991" />
    <vehicle id="245" type="typeNS" route="down" depart="994" color="1,0,0"/>
    <vehicle id="246" type="typeWE" route="left" depart="996" />
    <vehicle id="247" type="typeWE" route="right" depart="1008" />
    <vehicle id="248" type="typeWE" route="left" depart="1012" />
    <vehicle id="249" type="typeNS" route="down" depart="1016" color="1,0,0"/>
    <vehicle id="250" type="typeWE" route="right" depart="1018" />
    <vehicle id="251" type="typeWE" route="right" depart="1019" />
    <vehicle id="252" type="typeWE" route="left" depart="1023" />
    <vehicle id="253" type="typeWE" route="right" depart="1026" />
    <vehicle id="254" type="typeWE" route="right" depart="1029" />
    <vehicle id="255" type="typeWE" route="left" depart="1031" />
    <vehicle id="256" type="typeWE" route="right" depart="1036" />
    <vehicle id="257" type="typeWE" route="right" depart="1040" />
    <vehicle id="258" type="typeNS" route="down" depart="1050" color="1,0,0"/>
    <vehicle id="259" type="typeWE" route="right" depart="1057" />
    <vehicle id="260" type="typeWE" route="left" depart="1059" />
    <vehicle id="261" type="typeNS" route="down" depart="1068" color="1,0,0"/>
    <vehicle id="262" type="typeWE" route="right" depart="1085" />
    <vehicle id="263" type="typeWE" route="left" depart="1086" />
    <vehicle id="264" type="typeNS" route="down" depart="1086" color="1,0,0"/>
    <vehicle id="265" type="typeWE" route="left" depart="1087" />
    <vehicle id="266" type="typeWE" route="right" depart="1100" />
    <vehicle id="267" type="typeWE" route="right" depart="1107" />
    <vehicle id="268" type="typeWE" route="right" depart="1108" />
    <vehicle id="269" type="typeWE" route="right" depart="1109" />
    <vehicle id="270" type="typeWE" route="left" depart="1112" />
    <vehicle id="271" type="typeWE" route="right" depart="1118" />
    <vehicle id="272" type="typeWE" route="right" depart="1124" />
    <vehicle id="273" type="typeWE" route="left" depart="1126" />
    <vehicle id="274" type="typeWE" route="left" depart="1127" />
    <vehicle id="275" type="typeWE" route="right" depart="1128" />
    <vehicle id="276" type="typeWE" route="left" depart="1131" />
    <vehicle id="277" type="typeNS" route="down" depart="1133" color="1,0,0"/>
    <vehicle id="278" type="typeNS" route="down" depart="1135" color="1,0,0"/>
    <vehicle id="279" type="typeWE" route="left" depart="1138" />
    <vehicle id="280" type="typeWE" route="left" depart="1139" />
    <vehicle id="281" type="typeWE" route="left" depart="1140" />
    <vehicle id="282" type="typeWE" route="left" depart="1144" />
    <vehicle id="283" type="typeWE" route="left" depart="1152" />
    <vehicle id="284" type="typeWE" route="left" depart="1172" />
    <vehicle id="285" type="typeWE" route="right" depart="1173" />
    <vehicle id="286" type="typeWE" route="left" depart="1175" />
    <vehicle id="287" type="typeNS" route="down" depart="1175" color="1,0,0"/>
    <vehicle id="288" type="typeWE" route="left" depart="1186" />
    <vehicle id="289" type="typeWE" route="right" depart="1188" />
    <vehicle id="290" type="typeWE" route="right" depart="1194" />
    <vehicle id="291" type="typeWE" route="left" depart="1213" />
    <vehicle id="292" type="typeWE" route="left" depart="1214" />
    <vehicle id="293" type="typeWE" route="right" depart="1221" />
    <vehicle id="294" type="typeWE" route="right" depart="1225" />
    <vehicle id="295" type="typeNS" route="down" depart="1228" color="1,0,0"/>
    <vehicle id="296" type="typeWE" route="left" depart="1234" />
    <vehicle id="297" type="typeWE" route="right" depart="1235" />
    <vehicle id="298" type="typeWE" route="left" depart="1236" />
    <vehicle id="299" type="typeWE" route="right" depart="1243" />
    <vehicle id="300" type="typeWE" route="left" depart="1244" />
    <vehicle id="301" type="typeWE" route="right" depart="1253" />
    <vehicle id="302" type="typeWE" route="right" depart="1255" />
    <vehicle id="303" type="typeWE" route="right" depart="1256" />
    <vehicle id="304" type="typeWE" route="right" depart="1257" />
    <vehicle id="305" type="typeWE" route="left" depart="1269" />
    <vehicle id="306" type="typeWE" route="right" depart="1274" />
    <vehicle id="307" type="typeWE" route="left" depart="1276" />
    <vehicle id="308" type="typeWE" route="right" depart="1281" />
    <vehicle id="309" type="typeWE" route="left" depart="1284" />
    <vehicle id="310" type="typeWE" route="right" depart="1296" />
    <vehicle id="311" type="typeWE" route="right" depart="1300" />
    <vehicle id="312" type="typeNS" route="down" depart="1302" color="1,0,0"/>
    <vehicle id="313" type="typeWE" route="left" depart="1308" />
    <vehicle id="314" type="typeWE" route="left" depart="1310" />
    <vehicle id="315" type="typeWE" route="right" depart="1320" />
    <vehicle id="316" type="typeNS" route="down" depart="1323" color="1,0,0"/>
    <vehicle id="317" type="typeWE" route="right" depart="1327" />
    <vehicle id="318" type="typeWE" route="right" depart="1329" />
    <vehicle id="319" type="typeWE" route="right" depart="1335" />
    <vehicle id="320" type="typeWE" route="right" depart="1336" />
    <vehicle id="321" type="typeNS" route="down" depart="1338" color="1,0,0"/>
    <vehicle id="322" type="typeNS" route="down" depart="1339" color="1,0,0"/>
    <vehicle id="323" type="typeWE" route="left" depart="1341" />
    <vehicle id="324" type="typeWE" route="left" depart="1349" />
    <vehicle id="325" type="typeWE" route="right" depart="1353" />
    <vehicle id="326" type="typeWE" route="left" depart="1354" />
    <vehicle id="327" type="typeWE" route="left" depart="1361" />
    <vehicle id="328" type="typeWE" route="right" depart="1365" />
    <vehicle id="329" type="typeWE" route="left" depart="1385" />
    <vehicle id="330" type="typeWE" route="right" depart="1389" />
    <vehicle id="331" type="typeWE" route="left" depart="1394" />
    <vehicle id="332" type="typeWE" route="right" depart="1401" />
    <vehicle id="333" type="typeNS" route="down" depart="1402" color="1,0,0"/>
    <vehicle id="334" type="typeWE" route="right" depart="1406" />
    <vehicle id="335" type="typeWE" route="right" depart="1408" />
    <vehicle id="336" type="typeWE" route="left" depart="1409" />
    <vehicle id="337" type="typeWE" route="left" depart="1412" />
    <vehicle id="338" type="typeNS" route="down" depart="1414" color="1,0,0"/>
    <vehicle id="339" type="typeWE" route="right" depart="1415" />
    <vehicle id="340" type="typeWE" route="left" depart="1416" />
    <vehicle id="341" type="typeWE" route="right" depart="1418" />
    <vehicle id="342" type="typeWE" route="right" depart="1419" />
    <vehicle id="343" type="typeWE" route="right" depart="1422" />
    <vehicle id="344" type="typeNS" route="down" depart="1422" color="1,0,0"/>
    <vehicle id="345" type="typeNS" route="down" depart="1427" color="1,0,0"/>
    <vehicle id="346" type="typeWE" route="right" depart="1428" />
    <vehicle id="347" type="typeNS" route="down" depart="1431" color="1,0,0"/>
    <vehicle id="348" type="typeWE" route="right" depart="1436" />
    <vehicle id="349" type="typeWE" route="left" depart="1440" />
    <vehicle id="350" type="typeWE" route="right" depart="1443" />
    <vehicle id="351" type="typeWE" route="left" depart="1449" />
    <vehicle id="352" type="typeWE" route="left" depart="1459" />
    <vehicle id="353" type="typeWE" route="right" depart="1460" />
    <vehicle id="354" type="typeWE" route="left" depart="1465" />
    <vehicle id="355" type="typeNS" route="down" depart="1466" color="1,0,0"/>
    <vehicle id="356" type="typeWE" route="right" depart="1473" />
    <vehicle id="357" type="typeWE" route="left" depart="1476" />
    <vehicle id="358" type="typeWE" route="right" depart="1479" />
    <vehicle id="359" type="typeWE" route="right" depart="1483" />
    <vehicle id="360" type="typeWE" route="right" depart="1490" />
    <vehicle id="361" type="typeWE" route="left" depart="1490" />
    <vehicle id="362" type="typeWE" route="left" depart="1493" />
    <vehicle id="363" type="typeNS" route="down" depart="1504" color="1,0,0"/>
    <vehicle id="364" type="typeWE" route="right" depart="1507" />
    <vehicle id="365" type="typeWE" route="right" depart="1510" />
    <vehicle id="366" type="typeWE" route="left" depart="1519" />
    <vehicle id="367" type="typeWE" route="left" depart="1521" />
    <vehicle id="368" type="typeWE" route="left" depart="1534" />
    <vehicle id="369" type="typeWE" route="left" depart="1537" />
    <vehicle id="370" type="typeWE" route="right" depart="1562" />
    <vehicle id="371" type="typeWE" route="right" depart="1566" />
    <vehicle id="372" type="typeWE" route="left" depart="1566" />
    <vehicle id="373" type="typeWE" route="right" depart="1567" />
    <vehicle id="374" type="typeWE" route="right" depart="1570" />
    <vehicle id="375" type="typeWE" route="right" depart="1572" />
    <vehicle id="376" type="typeWE" route="right" depart="1573" />
    <vehicle id="377" type="typeWE" route="right" depart="1582" />
    <vehicle id="378" type="typeWE" route="left" depart="1587" />
    <vehicle id="379" type="typeWE" route="right" depart="1590" />
    <vehicle id="380" type="typeWE" route="left" depart="1593" />
    <vehicle id="381" type="typeWE" route="right" depart="1596" />
    <vehicle id="382" type="typeWE" route="left" depart="1608" />
    <vehicle id="383" type="typeNS" route="down" depart="1616" color="1,0,0"/>
    <vehicle id="384" type="typeWE" route="left" depart="1631" />
    <vehicle id="385" type="typeNS" route="down" depart="1638" color="1,0,0"/>
    <vehicle id="386" type="typeWE" route="right" depart="1643" />
    <vehicle id="387" type="typeWE" route="left" depart="1652" />
    <vehicle id="388" type="typeNS" route="down" depart="1652" color="1,0,0"/>
    <vehicle id="389" type="typeWE" route="left" depart="1662" />
    <vehicle id="390" type="typeNS" route="down" depart="1666" color="1,0,0"/>
    <vehicle id="391" type="typeWE" route="left" depart="1670" />
    <vehicle id="392" type="typeWE" route="left" depart="1678" />
    <vehicle id="393" type="typeNS" route="down" depart="1681" color="1,0,0"/>
    <vehicle id="394" type="typeWE" route="right" depart="1691" />
    <vehicle id="395" type="typeWE" route="left" depart="1693" />
    <vehicle id="396" type="typeWE" route="right" depart="1696" />
    <vehicle id="397" type="typeWE" route="left" depart="1697" />
    <vehicle id="398" type="typeWE" route="right" depart="1703" />
    <vehicle id="399" type="typeWE" route="right" depart="1704" />
    <vehicle id="400" type="typeWE" route="left" depart="1704" />
    <vehicle id="401" type="typeNS" route="down" depart="1704" color="1,0,0"/>
    <vehicle id="402" type="typeWE" route="left" depart="1711" />
    <vehicle id="403" type="typeWE" route="right" depart="1719" />
    <vehicle id="404" type="typeWE" route="right" depart="1720" />
    <vehicle id="405" type="typeWE" route="left" depart="1720" />
    <vehicle id="406" type="typeWE" route="right" depart="1722" />
    <vehicle id="407" type="typeWE" route="left" depart="1726" />
    <vehicle id="408" type="typeWE" route="right" depart="1740" />
    <vehicle id="409" type="typeWE" route="right" depart="1741" />
    <vehicle id="410" type="typeWE" route="right" depart="1749" />
    <vehicle id="411" type="typeWE" route="left" depart="1754" />
    <vehicle id="412" type="typeWE" route="left" depart="1760" />
    <vehicle id="413" type="typeWE" route="left" depart="1764" />
    <vehicle id="414" type="typeWE" route="right" depart="1769" />
    <vehicle id="415" type="typeWE" route="left" depart="1769" />
    <vehicle id="416" type="typeWE" route="left" depart="1776" />
    <vehicle id="417" type="typeWE" route="right" depart="1782" />
    <vehicle id="418" type="typeWE" route="right" depart="1787" />
    <vehicle id="419" type="typeWE" route="left" depart="1787" />
    <vehicle id="420" type="typeWE" route="left" depart="1791" />
    <vehicle id="421" type="typeWE" route="left" depart="1794" />
    <vehicle id="422" type="typeWE" route="left" depart="1796" />
    <vehicle id="423" type="typeWE" route="left" depart="1798" />
    <vehicle id="424" type="typeWE" route="right" depart="1820" />
    <vehicle id="425" type="typeWE" route="left" depart="1823" />
    <vehicle id="426" type="typeWE" route="right" depart="1825" />
    <vehicle id="427" type="typeWE" route="left" depart="1825" />
    <vehicle id="428" type="typeWE" route="right" depart="1831" />
    <vehicle id="429" type="typeNS" route="down" depart="1836" color="1,0,0"/>
    <vehicle id="430" type="typeWE" route="right" depart="1838" />
    <vehicle id="431" type="typeWE" route="left" depart="1850" />
    <vehicle id="432" type="typeWE" route="right" depart="1852" />
    <vehicle id="433" type="typeWE" route="left" depart="1855" />
    <vehicle id="434" type="typeWE" route="left" depart="1859" />
    <vehicle id="435" type="typeWE" route="left" depart="1867" />
    <vehicle id="436" type="typeWE" route="right" depart="1870" />
    <vehicle id="437" type="typeWE" route="left" depart="1872" />