<routes>
    <vType id="typeWE" accel="0.8" decel="4.5" sigma="0.5" length="5" minGap="2.5" maxSpeed="16.67" guiShape="passenger"/>
    <vType id="typeNS" accel="0.8" decel="4.5" sigma="0.5" length="17" minGap="3" maxSpeed="25" guiShape="bus"/>

    <route id="right" edges="51o 1i 2o 52i" />
    <route id="left" edges="52o 2i 1o 51i" />
    <route id="down" edges="54o 4i 3o 53i" />
    <vehicle id="0" type="typeWE" route="left" depart="0" />
    <vehicle id="1" type="typeWE" route="right" depart="2" />
    <vehicle id="2" type="typeWE" route="right" depart="5" />
    <vehicle id="3" type="typeWE" route="left" depart="15" />
    <vehicle id="4" type="typeWE" route="left" depart="16" />
    <vehicle id="5" type="typeWE" route="right" depart="19" />
    <vehicle id="6" type="typeNS" route="down" depart="20" color="1,0,0"/>
    <vehicle id="7" type="typeWE" route="right" depart="24" />
    <vehicle id="8" type="typeWE" route="left" depart="56" />
    <vehicle id="9" type="typeNS" route="down" depart="58" color="1,0,0"/>
    <vehicle id="10" type="typeWE" route="right" depart="64" />
    <vehicle id="11" type="typeWE" route="right" depart="72" />
    <vehicle id="12" type="typeWE" route="left" depart="74" />
    <vehicle id="13" type="typeWE" route="right" depart="79" />
    <vehicle id="14" type="typeNS" route="down" depart="80" color="1,0,0"/>
    <vehicle id="15" type="typeWE" route="left" depart="85" />
    <vehicle id="16" type="typeWE" route="left" depart="91" />
    <vehicle id="17" type="typeWE" route="right" depart="96" />
    <vehicle id="18" type="typeNS" route="down" depart="97" color="1,0,0"/>
    <vehicle id="19" type="typeWE" route="left" depart="101" />
    <vehicle id="20" type="typeWE" route="left" depart="110" />
    <vehicle id="21" type="typeWE" route="right" depart="112" />
    <vehicle id="22" type="typeWE" route="left" depart="115" />
    <vehicle id="23" type="typeWE" route="left" depart="118" />
    <vehicle id="24" type="typeWE" route="right" depart="119" />
    <vehicle id="25" type="typeWE" route="right" depart="120" />
    <vehicle id="26" type="typeWE" route="left" depart="122" />
    <vehicle id="27" type="typeWE" route="right" depart="129" />
    <vehicle id="28" type="typeWE" route="right" depart="133" />
    <vehicle id="29" type="typeWE" route="left" depart="133" />
    <vehicle id="30" type="typeWE" route="right" depart="134" />
    <vehicle id="31" type="typeWE" route="left" depart="135" />
    <vehicle id="32" type="typeWE" route="left" depart="139" />
    <vehicle id="33" type="typeWE" route="right" depart="142" />
    <vehicle id="34" type="typeWE" route="left" depart="147" />
    <vehicle id="35" type="typeWE" route="left" depart="148" />
    <vehicle id="36" type="typeWE" route="left" depart="150" />
    <vehicle id="37" type="typeWE" route="right" depart="164" />
    <vehicle id="38" type="typeWE" route="left" depart="166" />
    <vehicle id="39" type="typeWE" route="right" depart="168" />
    <vehicle id="40" type="typeWE" route="right" depart="169" />
    <vehicle id="41" type="typeWE" route="left" depart="172" />
    <vehicle id="42" type="typeNS" route="down" depart="174" color="1,0,0"/>
    <vehicle id="43" type="typeWE" route="left" depart="175" />
    <vehicle id="44" type="typeWE" route="right" depart="177" />
    <vehicle id="45" type="typeWE" route="right" depart="178" />
    <vehicle id="46" type="typeWE" route="right" depart="185" />
    <vehicle id="47" type="typeWE" route="left" depart="185" />
    <vehicle id="48" type="typeNS" route="down" depart="189" color="1,0,0"/>
    <vehicle id="49" type="typeWE" route="left" depart="194" />
    <vehicle id="50" type="typeNS" route="down" depart="203" color="1,0,0"/>
    <vehicle id="51" type="typeWE" route="left" depart="204" />
    <vehicle id="52" type="typeNS" route="down" depart="207" color="1,0,0"/>
    <vehicle id="53" type="typeWE" route="left" depart="209" />
    <vehicle id="54" type="typeNS" route="down" depart="209" color="1,0,0"/>
    <vehicle id="55" type="typeNS" route="down" depart="213" color="1,0,0"/>
    <vehicle id="56" type="typeWE" route="right" depart="216" />
    <vehicle id="57" type="typeWE" route="right" depart="222" />
    <vehicle id="58" type="typeWE" route="right" depart="224" />
    <vehicle id="59" type="typeWE" route="right" depart="230" />
    <vehicle id="60" type="typeWE" route="right" depart="247" />
    <vehicle id="61" type="typeWE" route="left" depart="250" />
    <vehicle id="62" type="typeWE" route="right" depart="256" />
    <vehicle id="63" type="typeWE" route="right" depart="262" />
    <vehicle id="64" type="typeWE" route="right" depart="267" />
    <vehicle id="65" type="typeWE" route="right" depart="270" />
    <vehicle id="66" type="typeWE" route="left" depart="270" />
    <vehicle id="67" type="typeWE" route="right" depart="274" />
    <vehicle id="68" type="typeWE" route="right" depart="283" />
    <vehicle id="69" type="typeWE" route="left" depart="283" />
    <vehicle id="70" type="typeNS" route="down" depart="284" color="1,0,0"/>
    <vehicle id="71" type="typeWE" route="left" depart="293" />
    <vehicle id="72" type="typeNS" route="down" depart="299" color="1,0,0"/>
    <vehicle id="73" type="typeWE" route="right" depart="301" />
    <vehicle id="74" type="typeWE" route="right" depart="304" />
    <vehicle id="75" type="typeWE" route="left" depart="314" />
    <vehicle id="76" type="typeWE" route="left" depart="317" />
    <vehicle id="77" type="typeWE" route="right" depart="321" />
    <vehicle id="78" type="typeWE" route="left" depart="321" />
    <vehicle id="79" type="typeWE" route="right" depart="322" />
    <vehicle id="80" type="typeWE" route="left" depart="323" />
    <vehicle id="81" type="typeWE" route="left" depart="325" />
    <vehicle id="82" type="typeWE" route="right" depart="338" />
    <vehicle id="83" type="typeWE" route="left" depart="344" />
    <vehicle id="84" type="typeWE" route="right" depart="345" />
    <vehicle id="85" type="typeWE" route="left" depart="345" />
    <vehicle id="86" type="typeNS" route="down" depart="358" color="1,0,0"/>
    <vehicle id="87" type="typeWE" route="right" depart="359" />
    <vehicle id="88" type="typeWE" route="right" depart="360" />
    <vehicle id="89" type="typeNS" route="down" depart="361" color="1,0,0"/>
    <vehicle id="90" type="typeWE" route="left" depart="366" />
    <vehicle id="91" type="typeNS" route="down" depart="372" color="1,0,0"/>
    <vehicle id="92" type="typeWE" route="right" depart="385" />
    <vehicle id="93" type="typeNS" route="down" depart="386" color="1,0,0"/>
    <vehicle id="94" type="typeWE" route="right" depart="392" />
    <vehicle id="95" type="typeWE" route="right" depart="399" />
    <vehicle id="96" type="typeWE" route="left" depart="403" />
    <vehicle id="97" type="typeWE" route="right" depart="407" />
    <vehicle id="98" type="typeWE" route="right" depart="409" />
    <vehicle id="99" type="typeWE" route="right" depart="412" />
    <vehicle id="100" type="typeWE" route="right" depart="413" />
    <vehicle id="101" type="typeWE" route="right" depart="418" />
    <vehicle id="102" type="typeWE" route="right" depart="420" />
    <vehicle id="103" type="typeWE" route="right" depart="425" />
    <vehicle id="104" type="typeWE" route="left" depart="426" />
    <vehicle id="105" type="typeWE" route="right" depart="434" />
    <vehicle id="106" type="typeWE" route="left" depart="437" />
    <vehicle id="107" type="typeWE" route="right" depart="438" />
    <vehicle id="108" type="typeNS" route="down" depart="441" color="1,0,0"/>
    <vehicle id="109" type="typeWE" route="right" depart="442" />
    <vehicle id="110" type="typeWE" route="left" depart="442" />
    <vehicle id="111" type="typeNS" route="down" depart="444" color="1,0,0"/>
    <vehicle id="112" type="typeWE" route="right" depart="453" />
    <vehicle id="113" type="typeWE" route="right" depart="464" />
    <vehicle id="114" type="typeWE" route="left" depart="468" />
    <vehicle id="115" type="typeWE" route="right" depart="471" />
    <vehicle id="116" type="typeWE" route="right" depart="476" />
    <vehicle id="117" type="typeWE" route="right" depart="477" />
    <vehicle id="118" type="typeWE" route="left" depart="483" />
    <vehicle id="119" type="typeNS" route="down" depart="489" color="1,0,0"/>
    <vehicle id="120" type="typeWE" route="left" depart="498" />
    <vehicle id="121" type="typeWE" route="right" depart="499" />
    <vehicle id="122" type="typeNS" route="down" depart="510" color="1,0,0"/>
    <vehicle id="123" type="typeWE" route="left" depart="517" />
    <vehicle id="124" type="typeWE" route="right" depart="522" />
    <vehicle id="125" type="typeWE" route="right" depart="524" />
    <vehicle id="126" type="typeWE" route="right" depart="531" />
    <vehicle id="127" type="typeWE" route="left" depart="534" />
    <vehicle id="128" type="typeWE" route="left" depart="542" />
    <vehicle id="129" type="typeWE" route="right" depart="545" />
    <vehicle id="130" type="typeWE" route="left" depart="547" />
    <vehicle id="131" type="typeWE" route="right" depart="554" />
    <vehicle id="132" type="typeWE" route="left" depart="555" />
    <vehicle id="133" type="typeWE" route="left" depart="561" />
    <vehicle id="134" type="typeWE" route="left" depart="565" />
    <vehicle id="135" type="typeWE" route="right" depart="566" />
    <vehicle id="136" type="typeWE" route="right" depart="569" />
    <vehicle id="137" type="typeWE" route="left" depart="577" />
    <vehicle id="138" type="typeNS" route="down" depart="580" color="1,0,0"/>
    <vehicle id="139" type="typeWE" route="left" depart="585" />
    <vehicle id="140" type="typeWE" route="left" depart="594" />
    <vehicle id="141" type="typeWE" route="left" depart="601" />
    <vehicle id="142" type="typeWE" route="left" depart="604" />
    <vehicle id="143" type="typeWE" route="left" depart="607" />
    <vehicle id="144" type="typeWE" route="left" depart="611" />
    <vehicle id="145" type="typeWE" route="left" depart="614" />
    <vehicle id="146" type="typeWE" route="right" depart="621" />
    <vehicle id="147" type="typeWE" route="left" depart="626" />
    <vehicle id="148" type="typeWE" route="left" depart="627" />
    <vehicle id="149" type="typeWE" route="right" depart="632" />
    <vehicle id="150" type="typeWE" route="left" depart="640" />
    <vehicle id="151" type="typeWE" route="right" depart="648" />
    <vehicle id="152" type="typeWE" route="left" depart="652" />
    <vehicle id="153" type="typeNS" route="down" depart="656" color="1,0,0"/>
    <vehicle id="154" type="typeWE" route="right" depart="657" />
    <vehicle id="155" type="typeWE" route="right" depart="659" />
    <vehicle id="156" type="typeWE" route="left" depart="659" />
    <vehicle id="157" type="typeWE" route="left" depart="668" />
    <vehicle id="158" type="typeWE" route="right" depart="673" />
    <vehicle id="159" type="typeWE" route="left" depart="683" />
    <vehicle id="160" type="typeWE" route="left" depart="687" />
    <vehicle id="161" type="typeWE" route="right" depart="693" />
    <vehicle id="162" type="typeNS" route="down" depart="695" color="1,0,0"/>
    <vehicle id="163" type="typeWE" route="left" depart="698" />
    <vehicle id="164" type="typeNS" route="down" depart="698" color="1,0,0"/>
    <vehicle id="165" type="typeWE" route="left" depart="701" />
    <vehicle id="166" type="typeWE" route="right" depart="704" />
    <vehicle id="167" type="typeNS" route="down" depart="705" color="1,0,0"/>
    <vehicle id="168" type="typeWE" route="left" depart="711" />
    <vehicle id="169" type="typeWE" route="left" depart="713" />
    <vehicle id="170" type="typeNS" route="down" depart="716" color="1,0,0"/>
    <vehicle id="171" type="typeWE" route="right" depart="728" />
    <vehicle id="172" type="typeWE" route="left" depart="740" />
    <vehicle id="173" type="typeNS" route="down" depart="740" color="1,0,0"/>
    <vehicle id="174" type="typeWE" route="left" depart="754" />
    <vehicle id="175" type="typeWE" route="left" depart="756" />
    <vehicle id="176" type="typeWE" route="left" depart="758" />
    <vehicle id="177" type="typeWE" route="left" depart="764" />
    <vehicle id="178" type="typeWE" route="right" depart="766" />
    <vehicle id="179" type="typeNS" route="down" depart="771" color="1,0,0"/>
    <vehicle id="180" type="typeNS" route="down" depart="774" color="1,0,0"/>
    <vehicle id="181" type="typeWE" route="left" depart="775" />
    <vehicle id="182" type="typeWE" route="right" depart="778" />
    <vehicle id="183" type="typeWE" route="left" depart="779" />
    <vehicle id="184" type="typeWE" route="right" depart="780" />
    <vehicle id="185" type="typeWE" route="left" depart="780" />
    <vehicle id="186" type="typeWE" route="left" depart="785" />
    <vehicle id="187" type="typeWE" route="right" depart="788" />
    <vehicle id="188" type="typeWE" route="left" depart="789" />
    <vehicle id="189" type="typeWE" route="right" depart="795" />
    <vehicle id="190" type="typeNS" route="down" depart="799" color="1,0,0"/>
    <vehicle id="191" type="typeNS" route="down" depart="804" color="1,0,0"/>
    <vehicle id="192" type="typeWE" route="left" depart="805" />
    <vehicle id="193" type="typeWE" route="left" depart="807" />
    <vehicle id="194" type="typeWE" route="right" depart="809" />
    <vehicle id="195" type="typeWE" route="right" depart="812" />
    <vehicle id="196" type="typeWE" route="right" depart="821" />
    <vehicle id="197" type="typeWE" route="right" depart="824" />
    <vehicle id="198" type="typeNS" route="down" depart="832" color="1,0,0"/>
    <vehicle id="199" type="typeWE" route="left" depart="845" />
    <vehicle id="200" type="typeWE" route="left" depart="858" />
    <vehicle id="201" type="typeWE" route="left" depart="860" />
    <vehicle id="202" type="typeWE" route="right" depart="863" />
    <vehicle id="203" type="typeWE" route="right" depart="865" />
    <vehicle id="204" type="typeNS" route="down" depart="869" color="1,0,0"/>
    <vehicle id="205" type="typeWE" route="left" depart="878" />
    <vehicle id="206" type="typeWE" route="left" depart="883" />
    <vehicle id="207" type="typeWE" route="right" depart="887" />
    <vehicle id="208" type="typeWE" route="right" depart="888" />
    <vehicle id="209" type="typeNS" route="down" depart="888" color="1,0,0"/>
    <vehicle id="210" type="typeWE" route="left" depart="897" />
    <vehicle id="211" type="typeNS" route="down" depart="897" color="1,0,0"/>
    <vehicle id="212" type="typeWE" route="right" depart="908" />
    <vehicle id="213" type="typeNS" route="down" depart="914" color="1,0,0"/>
    <vehicle id="214" type="typeWE" route="left" depart="919" />
    <vehicle id="215" type="typeWE" route="right" depart="925" />
    <vehicle id="216" type="typeWE" route="left" depart="926" />
    <vehicle id="217" type="typeWE" route="left" depart="928" />
    <vehicle id="218" type="typeWE" route="left" depart="931" />
    <vehicle id="219" type="typeWE" route="left" depart="937" />
    <vehicle id="220" type="typeNS" route="down" depart="940" color="1,0,0"/>
    <vehicle id="221" type="typeWE" route="left" depart="945" />
    <vehicle id="222" type="typeNS" route="down" depart="952" color="1,0,0"/>
    <vehicle id="223" type="typeWE" route="right" depart="953" />
    <vehicle id="224" type="typeWE" route="right" depart="955" />
    <vehicle id="225" type="typeNS" route="down" depart="961" color="1,0,0"/>
    <vehicle id="226" type="typeWE" route="right" depart="967" />
    <vehicle id="227" type="typeWE" route="right" depart="980" />
    <vehicle id="228" type="typeWE" route="right" depart="981" />
    <vehicle id="229" type="typeWE" route="left" depart="981" />
    <vehicle id="230" type="typeWE" route="right" depart="982" />
    <vehicle id="231" type="typeWE" route="left" depart="985" />
    <vehicle id="232" type="typeWE" route="left" depart="986" />
    <vehicle id="233" type="typeWE" route="left" depart="988" />
    <vehicle id="234" type="typeWE" route="right" depart="992" />
    <vehicle id="235" type="typeWE" route="left" depart="993" />
    <vehicle id="236" type="typeWE" route="left" depart="999" />
    <vehicle id="237" type="typeWE" route="left" depart="1000" />
    <vehicle id="238" type="typeNS" route="down" depart="1001" color="1,0,0"/>
    <vehicle id="239" type="typeWE" route="right" depart="1011" />
    <vehicle id="240" type="typeWE" route="right" depart="1015" />
    <vehicle id="241" type="typeNS" route="down" depart="1015" color="1,0,0"/>
    <vehicle id="242" type="typeWE" route="right" depart="1016" />
    <vehicle id="243" type="typeWE" route="left" depart="1018" />
    <vehicle id="244" type="typeWE" route="right" depart="1027" />
    <vehicle id="245" type="typeWE" route="right" depart="1035" />
    <vehicle id="246" type="typeWE" route="right" depart="1036" />
    <vehicle id="247" type="typeWE" route="left" depart="1045" />
    <vehicle id="248" type="typeWE" route="left" depart="1060" />
    <vehicle id="249" type="typeWE" route="left" depart="1063" />
    <vehicle id="250" type="typeNS" route="down" depart="1063" color="1,0,0"/>
    <vehicle id="251" type="typeWE" route="right" depart="1065" />
    <vehicle id="252" type="typeWE" route="right" depart="1068" />
    <vehicle id="253" type="typeWE" route="left" depart="1070" />
    <vehicle id="254" type="typeWE" route="right" depart="1075" />
    <vehicle id="255" type="typeNS" route="down" depart="1079" color="1,0,0"/>
    <vehicle id="256" type="typeWE" route="left" depart="1097" />
    <vehicle id="257" type="typeWE" route="right" depart="1101" />
    <vehicle id="258" type="typeWE" route="left" depart="1104" />
    <vehicle id="259" type="typeWE" route="right" depart="1116" />
    <vehicle id="260" type="typeWE" route="left" depart="1118" />
    <vehicle id="261" type="typeWE" route="left" depart="1120" />
    <vehicle id="262" type="typeWE" route="left" depart="1123" />
    <vehicle id="263" type="typeWE" route="right" depart="1130" />
    <vehicle id="264" type="typeWE" route="left" depart="1139" />
    <vehicle id="265" type="typeWE" route="right" depart="1145" />
    <vehicle id="266" type="typeWE" route="left" depart="1147" />
    <vehicle id="267" type="typeWE" route="right" depart="1158" />
    <vehicle id="268" type="typeWE" route="right" depart="1160" />
    <vehicle id="269" type="typeWE" route="left" depart="1163" />
    <vehicle id="270" type="typeWE" route="right" depart="1171" />
    <vehicle id="271" type="typeWE" route="left" depart="1177" />
    <vehicle id="272" type="typeWE" route="left" depart="1184" />
    <vehicle id="273" type="typeWE" route="left" depart="1195" />
    <vehicle id="274" type="typeWE" route="right" depart="1196" />
    <vehicle id="275" type="typeWE" route="left" depart="1197" />
    <vehicle id="276" type="typeNS" route="down" depart="1197" color="1,0,0"/>
    <vehicle id="277" type="typeWE" route="left" depart="1198" />
    <vehicle id="278" type="typeWE" route="right" depart="1200" />
    <vehicle id="279" type="typeWE" route="left" depart="1200" />
    <vehicle id="280" type="typeWE" route="right" depart="1205" />
    <vehicle id="281" type="typeWE" route="right" depart="1207" />
    <vehicle id="282" type="typeWE" route="left" depart="1208" />
    <vehicle id="283" type="typeWE" route="right" depart="1211" />
    <vehicle id="284" type="typeWE" route="left" depart="1215" />
    <vehicle id="285" type="typeWE" route="left" depart="1217" />
    <vehicle id="286" type="typeNS" route="down" depart="1218" color="1,0,0"/>
    <vehicle id="287" type="typeWE" route="right" depart="1220" />
    <vehicle id="288" type="typeWE" route="left" depart="1220" />
    <vehicle id="289" type="typeWE" route="right" depart="1224" />
    <vehicle id="290" type="typeWE" route="right" depart="1227" />
    <vehicle id="291" type="typeWE" route="right" depart="1230" />
    <vehicle id="292" type="typeWE" route="right" depart="1232" />
    <vehicle id="293" type="typeWE" route="left" depart="1232" />
    <vehicle id="294" type="typeNS" route="down" depart="1232" color="1,0,0"/>
    <vehicle id="295" type="typeWE" route="right" depart="1270" />
    <vehicle id="296" type="typeWE" route="right" depart="1272" />
    <vehicle id="297" type="typeWE" route="left" depart="1277" />
    <vehicle id="298" type="typeWE" route="right" depart="1281" />
    <vehicle id="299" type="typeWE" route="left" depart="1287" />
    <vehicle id="300" type="typeWE" route="right" depart="1292" />
    <vehicle id="301" type="typeWE" route="left" depart="1293" />
    <vehicle id="302" type="typeWE" route="right" depart="1304" />
    <vehicle id="303" type="typeWE" route="left" depart="1305" />
    <vehicle id="304" type="typeWE" route="left" depart="1306" />
    <vehicle id="305" type="typeNS" route="down" depart="1323" color="1,0,0"/>
    <vehicle id="306" type="typeNS" route="down" depart="1326" color="1,0,0"/>
    <vehicle id="307" type="typeWE" route="left" depart="1331" />
    <vehicle id="308" type="typeWE" route="right" depart="1338" />
    <vehicle id="309" type="typeWE" route="right" depart="1341" />
    <vehicle id="310" type="typeNS" route="down" depart="1343" color="1,0,0"/>
    <vehicle id="311" type="typeWE" route="left" depart="1347" />
    <vehicle id="312" type="typeWE" route="left" depart="1361" />
    <vehicle id="313" type="typeWE" route="left" depart="1363" />
    <vehicle id="314" type="typeNS" route="down" depart="1363" color="1,0,0"/>
    <vehicle id="315" type="typeNS" route="down" depart="1365" color="1,0,0"/>
    <vehicle id="316" type="typeWE" route="right" depart="1368" />
    <vehicle id="317" type="typeWE" route="right" depart="1370" />
    <vehicle id="318" type="typeWE" route="left" depart="1371" />
    <vehicle id="319" type="typeWE" route="right" depart="1375" />
    <vehicle id="320" type="typeWE" route="left" depart="1381" />
    <vehicle id="321" type="typeWE" route="right" depart="1385" />
    <vehicle id="322" type="typeWE" route="right" depart="1386" />
    <vehicle id="323" type="typeWE" route="left" depart="1387" />
    <vehicle id="324" type="typeWE" route="right" depart="1398" />
    <vehicle id="325" type="typeNS" route="down" depart="1402" color="1,0,0"/>
    <vehicle id="326" type="typeNS" route="down" depart="1403" color="1,0,0"/>
    <vehicle id="327" type="typeWE" route="right" depart="1407" />
    <vehicle id="328" type="typeWE" route="left" depart="1407" />
    <vehicle id="329" type="typeWE" route="left" depart="1413" />
    <vehicle id="330" type="typeWE" route="right" depart="1417" />
    <vehicle id="331" type="typeWE" route="left" depart="1417" />
    <vehicle id="332" type="typeWE" route="left" depart="1418" />
    <vehicle id="333" type="typeWE" route="left" depart="1419" />
    <vehicle id="334" type="typeWE" route="right" depart="1420" />
    <vehicle id="335" type="typeWE" route="left" depart="1420" />
    <vehicle id="336" type="typeNS" route="down" depart="1422" color="1,0,0"/>
    <vehicle id="337" type="typeWE" route="left" depart="1424" />
    <vehicle id="338" type="typeWE" route="left" depart="1428" />
    <vehicle id="339" type="typeWE" route="right" depart="1430" />
    <vehicle id="340" type="typeWE" route="left" depart="1431" />
    <vehicle id="341" type="typeWE" route="left" depart="1435" />
    <vehicle id="342" type="typeWE" route="right" depart="1439" />
    <vehicle id="343" type="typeWE" route="right" depart="1441" />
    <vehicle id="344" type="typeWE" route="right" depart="1443" />
    <vehicle id="345" type="typeWE" route="left" depart="1445" />
    <vehicle id="346" type="typeWE" route="right" depart="1449" />
    <vehicle id="347" type="typeWE" route="left" depart="1452" />
    <vehicle id="348" type="typeWE" route="left" depart="1458" />
    <vehicle id="349" type="typeWE" route="left" depart="1459" />
    <vehicle id="350" type="typeNS" route="down" depart="1462" color="1,0,0"/>
    <vehicle id="351" type="typeWE" route="left" depart="1463" />
    <vehicle id="352" type="typeWE" route="left" depart="1464" />
    <vehicle id="353" type="typeWE" route="right" depart="1469" />
    <vehicle id="354" type="typeNS" route="down" depart="1477" color="1,0,0"/>
    <vehicle id="355" type="typeWE" route="right" depart="1482" />
    <vehicle id="356" type="typeWE" route="left" depart="1487" />
    <vehicle id="357" type="typeWE" route="left" depart="1497" />
    <vehicle id="358" type="typeWE" route="right" depart="1508" />
    <vehicle id="359" type="typeWE" route="left" depart="1508" />
    <vehicle id="360" type="typeWE" route="right" depart="1512" />
    <vehicle id="361" type="typeWE" route="left" depart="1517" />
    <vehicle id="362" type="typeWE" route="right" depart="1519" />
    <vehicle id="363" type="typeNS" route="down" depart="1523" color="1,0,0"/>
    <vehicle id="364" type="typeNS" route="down" depart="1526" color="1,0,0"/>
    <vehicle id="365" type="typeWE" route="right" depart="1528" />
    <vehicle id="366" type="typeWE" route="right" depart="1529" />
    <vehicle id="367" type="typeWE" route="right" depart="1533" />
    <vehicle id="368" type="typeNS" route="down" depart="1536" color="1,0,0"/>
    <vehicle id="369" type="typeWE" route="right" depart="1538" />
    <vehicle id="370" type="typeWE" route="left" depart="1539" />
    <vehicle id="371" type="typeNS" route="down" depart="1539" color="1,0,0"/>
    <vehicle id="372" type="typeWE" route="left" depart="1541" />
    <vehicle id="373" type="typeWE" route="left" depart="1555" />
    <vehicle id="374" type="typeWE" route="right" depart="1557" />
    <vehicle id="375" type="typeWE" route="right" depart="1561" />
    <vehicle id="376" type="typeWE" route="left" depart="1563" />
    <vehicle id="377" type="typeWE" route="left" depart="1574" />
    <vehicle id="378" type="typeWE" route="right" depart="1575" />
    <vehicle id="379" type="typeWE" route="left" depart="1575" />
    <vehicle id="380" type="typeWE" route="left" depart="1593" />
    <vehicle id="381" type="typeWE" route="left" depart="1596" />
    <vehicle id="382" type="typeWE" route="left" depart="1610" />
    <vehicle id="383" type="typeWE" route="right" depart="1611" />
    <vehicle id="384" type="typeWE" route="left" depart="1612" />
    <vehicle id="385" type="typeWE" route="right" depart="1622" />
    <vehicle id="386" type="typeWE" route="left" depart="1634" />
    <vehicle id="387" type="typeWE" route="right" depart="1635" />
    <vehicle id="388" type="typeWE" route="right" depart="1643" />
    <vehicle id="389" type="typeWE" route="left" depart="1645" />
    <vehicle id="390" type="typeWE" route="left" depart="1648" />
    <vehicle id="391" type="typeWE" route="left" depart="1651" />
    <vehicle id="392" type="typeWE" route="right" depart="1656" />
    <vehicle id="393" type="typeWE" route="right" depart="1663" />
    <vehicle id="394" type="typeNS" route="down" depart="1667" color="1,0,0"/>
    <vehicle id="395" type="typeWE" route="left" depart="1675" />
    <vehicle id="396" type="typeNS" route="down" depart="1675" color="1,0,0"/>
    <vehicle id="397" type="typeWE" route="left" depart="1679" />
    <vehicle id="398" type="typeWE" route="right" depart="1688" />
    <vehicle id="399" type="typeWE" route="left" depart="1692" />
    <vehicle id="400" type="typeWE" route="left" depart="1693" />
    <vehicle id="401" type="typeWE" route="left" depart="1695" />
    <vehicle id="402" type="typeWE" route="right" depart="1696" />
    <vehicle id="403" type="typeWE" route="right" depart="1700" />
    <vehicle id="404" type="typeWE" route="right" depart="1709" />
    <vehicle id="405" type="typeWE" route="left" depart="1713" />
    <vehicle id="406" type="typeNS" route="down" depart="1715" color="1,0,0"/>
    <vehicle id="407" type="typeWE" route="right" depart="1720" />
    <vehicle id="408" type="typeWE" route="left" depart="1734" />
    <vehicle id="409" type="typeWE" route="right" depart="1736" />
    <vehicle id="410" type="typeWE" route="left" depart="1740" />
    <vehicle id="411" type="typeNS" route="down" depart="1740" color="1,0,0"/>
    <vehicle id="412" type="typeWE" route="left" depart="1749" />
    <vehicle id="413" type="typeWE" route="right" depart="1753" />
    <vehicle id="414" type="typeWE" route="right" depart="1754" />
    <vehicle id="415" type="typeWE" route="right" depart="1758" />
    <vehicle id="416" type="typeWE" route="left" depart="1762" />
    <vehicle id="417" type="typeWE" route="right" depart="1765" />
    <vehicle id="418" type="typeWE" route="left" depart="1770" />
    <vehicle id="419" type="typeNS" route="down" depart="1773" color="1,0,0"/>
    <vehicle id="420" type="typeWE" route="right" depart="1774" />
    <vehicle id="421" type="typeNS" route="down" depart="1778" color="1,0,0"/>
    <vehicle id="422" type="typeNS" route="down" depart="1783" color="1,0,0"/>
    <vehicle id="423" type="typeWE" route="right" depart="1789" />
    <vehicle id="424" type="typeWE" route="left" depart="1799" />
    <vehicle id="425" type="typeNS" route="down" depart="1801" color="1,0,0"/>
    <vehicle id="426" type="typeWE" route="right" depart="1802" />
    <vehicle id="427" type="typeWE" route="left" depart="1805" />
    <vehicle id="428" type="typeWE" route="right" depart="1808" />
    <vehicle id="429" type="typeWE" route="left" depart="1811" />
    <vehicle id="430" type="typeNS" route="down" depart="1814" color="1,0,0"/>
    <vehicle id="431" type="typeWE" route="right" depart="1825" />
    <vehicle id="432" type="typeWE" route="right" depart="1826" />
    <vehicle id="433" type="typeWE" route="left" depart="1838" />
    <vehicle id="434" type="typeWE" route="right" depart="1841" />
    <vehicle id="435" type="typeWE" route="left" depart="1843" />
    <vehicle id="436" type="typeWE" route="right" depart="1852" />