<?xml version="1.0" encoding="UTF-8"?>

<!-- generated on Tue Sep 25 13:30:08 2012 by SUMO netconvert Version 0.15.0
<?xml version="1.0" encoding="UTF-8"?>

<configuration xmlns:xsi="http://www.w3.org/2001/XMLSchema-instance" xsi:noNamespaceSchemaLocation="http://sumo.sf.net/xsd/netconvertConfiguration.xsd">

    <input>
        <sumo-net-file value="Data.net.xml"/>
    </input>

    <output>
        <plain-output-prefix value="test"/>
    </output>

    <processing>
        <no-turnarounds value="true"/>
        <offset.disable-normalization value="true"/>
    </processing>

</configuration>
-->

<tlLogics version="0.13" xmlns:xsi="http://www.w3.org/2001/XMLSchema-instance" xsi:noNamespaceSchemaLocation="http://sumo.sf.net/xsd/tllogic_file.xsd">
	<tlLogic id="cluster_Ju_Vesterbro_Ostre_KongCh_hobro_NO_Ju_Vesterbro_Ostre_KongCh_hobro_NV_Ju_Vesterbro_Ostre_KongCh_hobro_SO_Ju_Vesterbro_Ostre_KongCh_hobro_SV" type="static" programID="0" offset="0">
		<phase duration="31" state="gggrrrrrrrrrgggr"/> <!-- 1 -->
		<phase duration="4" state="yyyrrrrrrrrryyyr"/>
		<phase duration="2" state="rrryyrrryrrrrrry"/>
		<phase duration="10" state="rrrggrrrgrrrrrrg"/> <!-- 2 -->
		<phase duration="4" state="rrrygrrrgrrrrrry"/>
		<phase duration="2" state="rrrrgyyygyyrrrrr"/>
		<phase duration="31" state="rrrrgggggggrrrrr"/> <!-- 3 -->
		<phase duration="4" state="rrrryyyygggrrrrr"/>
		<phase duration="2" state="rrrrrrrrgggyyrrr"/>
		<phase duration="10" state="rrrrrrrrgggGGrrr"/> <!-- 4 -->
		<phase duration="4" state="rrrrrrrryyyygrrr"/>
		<phase duration="2" state="yyyrrrrrrrrrgyyr"/>
	</tlLogic>

	<!-- from vesterbro -->
    <connection from="1_S.-60" to="2_V" fromLane="0" toLane="0" tl="cluster_Ju_Vesterbro_Ostre_KongCh_hobro_NO_Ju_Vesterbro_Ostre_KongCh_hobro_NV_Ju_Vesterbro_Ostre_KongCh_hobro_SO_Ju_Vesterbro_Ostre_KongCh_hobro_SV" linkIndex="0"/>
    <connection from="1_S.-60" to="4_S" fromLane="1" toLane="0" tl="cluster_Ju_Vesterbro_Ostre_KongCh_hobro_NO_Ju_Vesterbro_Ostre_KongCh_hobro_NV_Ju_Vesterbro_Ostre_KongCh_hobro_SO_Ju_Vesterbro_Ostre_KongCh_hobro_SV" linkIndex="1"/>
    <connection from="1_S.-60" to="4_S" fromLane="2" toLane="1" tl="cluster_Ju_Vesterbro_Ostre_KongCh_hobro_NO_Ju_Vesterbro_Ostre_KongCh_hobro_NV_Ju_Vesterbro_Ostre_KongCh_hobro_SO_Ju_Vesterbro_Ostre_KongCh_hobro_SV" linkIndex="2"/>
    <connection from="1_S.-60" to="3_O" fromLane="3" toLane="0" tl="cluster_Ju_Vesterbro_Ostre_KongCh_hobro_NO_Ju_Vesterbro_Ostre_KongCh_hobro_NV_Ju_Vesterbro_Ostre_KongCh_hobro_SO_Ju_Vesterbro_Ostre_KongCh_hobro_SV" linkIndex="3"/>
    
    <!-- from kongch -->
    <connection from="2_O.-60" to="4_S" fromLane="0" toLane="0" tl="cluster_Ju_Vesterbro_Ostre_KongCh_hobro_NO_Ju_Vesterbro_Ostre_KongCh_hobro_NV_Ju_Vesterbro_Ostre_KongCh_hobro_SO_Ju_Vesterbro_Ostre_KongCh_hobro_SV" linkIndex="4"/>
    <connection from="2_O.-60" to="3_O" fromLane="1" toLane="0" tl="cluster_Ju_Vesterbro_Ostre_KongCh_hobro_NO_Ju_Vesterbro_Ostre_KongCh_hobro_NV_Ju_Vesterbro_Ostre_KongCh_hobro_SO_Ju_Vesterbro_Ostre_KongCh_hobro_SV" linkIndex="5"/>
    <connection from="2_O.-60" to="3_O" fromLane="2" toLane="1" tl="cluster_Ju_Vesterbro_Ostre_KongCh_hobro_NO_Ju_Vesterbro_Ostre_KongCh_hobro_NV_Ju_Vesterbro_Ostre_KongCh_hobro_SO_Ju_Vesterbro_Ostre_KongCh_hobro_SV" linkIndex="6"/>
    <connection from="2_O.-60" to="1_N" fromLane="3" toLane="0" tl="cluster_Ju_Vesterbro_Ostre_KongCh_hobro_NO_Ju_Vesterbro_Ostre_KongCh_hobro_NV_Ju_Vesterbro_Ostre_KongCh_hobro_SO_Ju_Vesterbro_Ostre_KongCh_hobro_SV" linkIndex="7"/>

	<!-- from osteralle -->
	<connection from="3_V.-60" to="1_N" fromLane="0" toLane="0" tl="cluster_Ju_Vesterbro_Ostre_KongCh_hobro_NO_Ju_Vesterbro_Ostre_KongCh_hobro_NV_Ju_Vesterbro_Ostre_KongCh_hobro_SO_Ju_Vesterbro_Ostre_KongCh_hobro_SV" linkIndex="8"/>
	<connection from="3_V.-60" to="2_V" fromLane="1" toLane="0" tl="cluster_Ju_Vesterbro_Ostre_KongCh_hobro_NO_Ju_Vesterbro_Ostre_KongCh_hobro_NV_Ju_Vesterbro_Ostre_KongCh_hobro_SO_Ju_Vesterbro_Ostre_KongCh_hobro_SV" linkIndex="9"/>
	<connection from="3_V.-60" to="2_V" fromLane="2" toLane="1" tl="cluster_Ju_Vesterbro_Ostre_KongCh_hobro_NO_Ju_Vesterbro_Ostre_KongCh_hobro_NV_Ju_Vesterbro_Ostre_KongCh_hobro_SO_Ju_Vesterbro_Ostre_KongCh_hobro_SV" linkIndex="10"/>
	<connection from="3_V.-60" to="4_S" fromLane="3" toLane="0" tl="cluster_Ju_Vesterbro_Ostre_KongCh_hobro_NO_Ju_Vesterbro_Ostre_KongCh_hobro_NV_Ju_Vesterbro_Ostre_KongCh_hobro_SO_Ju_Vesterbro_Ostre_KongCh_hobro_SV" linkIndex="11"/>
	
	<!-- from hobro -->
	<connection from="4_N.-60" to="3_O" fromLane="0" toLane="0" tl="cluster_Ju_Vesterbro_Ostre_KongCh_hobro_NO_Ju_Vesterbro_Ostre_KongCh_hobro_NV_Ju_Vesterbro_Ostre_KongCh_hobro_SO_Ju_Vesterbro_Ostre_KongCh_hobro_SV" linkIndex="12"/>
	<connection from="4_N.-60" to="1_N" fromLane="1" toLane="0" tl="cluster_Ju_Vesterbro_Ostre_KongCh_hobro_NO_Ju_Vesterbro_Ostre_KongCh_hobro_NV_Ju_Vesterbro_Ostre_KongCh_hobro_SO_Ju_Vesterbro_Ostre_KongCh_hobro_SV" linkIndex="13"/>
	<connection from="4_N.-60" to="1_N" fromLane="2" toLane="1" tl="cluster_Ju_Vesterbro_Ostre_KongCh_hobro_NO_Ju_Vesterbro_Ostre_KongCh_hobro_NV_Ju_Vesterbro_Ostre_KongCh_hobro_SO_Ju_Vesterbro_Ostre_KongCh_hobro_SV" linkIndex="14"/>
	<connection from="4_N.-60" to="2_V" fromLane="3" toLane="0" tl="cluster_Ju_Vesterbro_Ostre_KongCh_hobro_NO_Ju_Vesterbro_Ostre_KongCh_hobro_NV_Ju_Vesterbro_Ostre_KongCh_hobro_SO_Ju_Vesterbro_Ostre_KongCh_hobro_SV" linkIndex="15"/>

	
	<!-- Hobrovej Sønderskov vej -->
	<tlLogic id="cluster_Ju_Hobrovej_sonderSkov_O_Ju_Hobrovej_sonderSkov_OS_Ju_Hobrovej_sonderSkov_V_Ju_Hobrovej_sonderSkov_VS" type="static" programID="0" offset="0">
		<phase duration="31" state="gggrrggg"/> <!-- 1 -->
		<phase duration="4" state="yyyrryyy"/>
		<phase duration="2" state="rrryyrrr"/>
		<phase duration="21" state="rrrggrrr"/> <!-- 2 -->
		<phase duration="4" state="rrryyrrr"/>
		<phase duration="2" state="yyyrryyy"/>	
	</tlLogic>

    <connection from="5_S.-30" to="6_V" fromLane="0" toLane="0" tl="cluster_Ju_Hobrovej_sonderSkov_O_Ju_Hobrovej_sonderSkov_OS_Ju_Hobrovej_sonderSkov_V_Ju_Hobrovej_sonderSkov_VS" linkIndex="0"/>
    <connection from="5_S.-30" to="7_S" fromLane="1" toLane="0" tl="cluster_Ju_Hobrovej_sonderSkov_O_Ju_Hobrovej_sonderSkov_OS_Ju_Hobrovej_sonderSkov_V_Ju_Hobrovej_sonderSkov_VS" linkIndex="1"/>
    <connection from="5_S.-30" to="7_S" fromLane="2" toLane="1" tl="cluster_Ju_Hobrovej_sonderSkov_O_Ju_Hobrovej_sonderSkov_OS_Ju_Hobrovej_sonderSkov_V_Ju_Hobrovej_sonderSkov_VS" linkIndex="2"/>
    
    <connection from="6_O.-30" to="7_S" fromLane="0" toLane="0" tl="cluster_Ju_Hobrovej_sonderSkov_O_Ju_Hobrovej_sonderSkov_OS_Ju_Hobrovej_sonderSkov_V_Ju_Hobrovej_sonderSkov_VS" linkIndex="3"/>
    <connection from="6_O.-30" to="5_N" fromLane="1" toLane="0" tl="cluster_Ju_Hobrovej_sonderSkov_O_Ju_Hobrovej_sonderSkov_OS_Ju_Hobrovej_sonderSkov_V_Ju_Hobrovej_sonderSkov_VS" linkIndex="4"/>
    
    <connection from="7_N.-60" to="5_N" fromLane="0" toLane="0" tl="cluster_Ju_Hobrovej_sonderSkov_O_Ju_Hobrovej_sonderSkov_OS_Ju_Hobrovej_sonderSkov_V_Ju_Hobrovej_sonderSkov_VS" linkIndex="5"/>
    <connection from="7_N.-60" to="5_N" fromLane="1" toLane="1" tl="cluster_Ju_Hobrovej_sonderSkov_O_Ju_Hobrovej_sonderSkov_OS_Ju_Hobrovej_sonderSkov_V_Ju_Hobrovej_sonderSkov_VS" linkIndex="6"/>
    <connection from="7_N.-60" to="6_V" fromLane="2" toLane="0" tl="cluster_Ju_Hobrovej_sonderSkov_O_Ju_Hobrovej_sonderSkov_OS_Ju_Hobrovej_sonderSkov_V_Ju_Hobrovej_sonderSkov_VS" linkIndex="7"/>


	
	<!-- Hobrovej_MollerPark -->
	<tlLogic id="cluster_Ju_Hobrovej_MollerPark_Ju_Hobrovej_MollerPark_NO" type="static" programID="0" offset="0">
		<phase duration="31" state="gggrrggg"/> <!-- 1 -->
		<phase duration="4" state="yyyrryyy"/>
		<phase duration="2" state="rrryyrrr"/>
		<phase duration="21" state="rrrggrrr"/> <!-- 2 -->
		<phase duration="4" state="rrryyrrr"/>
		<phase duration="2" state="yyyrryyy"/>
	</tlLogic>
	
	<connection from="11_S.-50" to="12_V"  fromLane="0" toLane="0" tl="cluster_Ju_Hobrovej_MollerPark_Ju_Hobrovej_MollerPark_NO" linkIndex="0"/>
	<connection from="11_S.-50" to="13_S"  fromLane="1" toLane="0" tl="cluster_Ju_Hobrovej_MollerPark_Ju_Hobrovej_MollerPark_NO" linkIndex="1"/>
	<connection from="11_S.-50" to="13_S"  fromLane="2" toLane="1" tl="cluster_Ju_Hobrovej_MollerPark_Ju_Hobrovej_MollerPark_NO" linkIndex="2"/>	

	<connection from="12_O" to="11_N"  fromLane="0" toLane="0" tl="cluster_Ju_Hobrovej_MollerPark_Ju_Hobrovej_MollerPark_NO" linkIndex="3"/>	
	<connection from="12_O" to="13_S"  fromLane="0" toLane="0" tl="cluster_Ju_Hobrovej_MollerPark_Ju_Hobrovej_MollerPark_NO" linkIndex="4"/>

	<connection from="13_N.-40" to="11_N"  fromLane="0" toLane="1" tl="cluster_Ju_Hobrovej_MollerPark_Ju_Hobrovej_MollerPark_NO" linkIndex="5"/>	
	<connection from="13_N.-40" to="11_N"  fromLane="1" toLane="0" tl="cluster_Ju_Hobrovej_MollerPark_Ju_Hobrovej_MollerPark_NO" linkIndex="6"/>
	<connection from="13_N.-40" to="12_V"  fromLane="2" toLane="0" tl="cluster_Ju_Hobrovej_MollerPark_Ju_Hobrovej_MollerPark_NO" linkIndex="7"/>
	
</tlLogics>


