<edges>
	<!-- begin Junction Vesterbro osterbro hobro kongch -->
	<!-- vesterbro id 1-->    
	<edge from="Vesterbro_N_S" id="1_S" to="Ju_Vesterbro_Ostre_KongCh_hobro_NV" speed="16.6" numLanes="1" spreadType="center" >
		<split pos="0" lanes="1 2"/>	
		<split pos="-60" lanes="0 1 2 3"/>
	</edge>
    <edge from="Ju_Vesterbro_Ostre_KongCh_hobro_NO" id="1_N" to="Vesterbro_N_N" speed="16.6" numLanes="2" spreadType="center" >
		<split pos="0" lanes="0 1"/>	
	</edge>

	<!-- KongCh id 2-->
	<edge from="KongCh_V" id="2_O" to="Ju_Vesterbro_Ostre_KongCh_hobro_SV" speed="16.6" numLanes="2"  spreadType="center" >
		<split pos="0" lanes="1 2"/>	
		<split pos="-60" lanes="0 1 2 3"/>
	</edge>
	<edge from="Ju_Vesterbro_Ostre_KongCh_hobro_NV" id="2_V" to="KongCh_V"  speed="16.6" numLanes="2" spreadType="center" >
	</edge>

	<!-- Ostre id 3-->
	<edge from="Ostre_O" id="3_V" to="Ju_Vesterbro_Ostre_KongCh_hobro_NO" speed="16.6" numLanes="2" spreadType="center" >
		<split pos="0" lanes="1 2"/>	
		<split pos="-60" lanes="0 1 2 3"/>
	</edge>
	<edge from="Ju_Vesterbro_Ostre_KongCh_hobro_SO" id="3_O" to="Ostre_O" speed="16.6" numLanes="2" spreadType="center" />
	
	<!-- Hobrovej_1 id 4-->
    <edge from="Hobrovej_N_1" id="4_N" to="Ju_Vesterbro_Ostre_KongCh_hobro_SO" speed="16.6" numLanes="4" spreadType="center" >
		<split pos="-60" lanes="0 1 2 3"/>
		<split pos="0" lanes="2 3"/>
	</edge>
    <edge from="Ju_Vesterbro_Ostre_KongCh_hobro_SV" id="4_S" to="Hobrovej_S_1" speed="16.6" numLanes="2" >
	</edge>
	
	<!-- Inner Junction Connection-->
    <edge from="Ju_Vesterbro_Ostre_KongCh_hobro_SV" id="4_1_1" to="Ju_Vesterbro_Ostre_KongCh_hobro_SO" speed="16.6" numLanes="2" />
    <edge from="Ju_Vesterbro_Ostre_KongCh_hobro_SO" id="4_2_1" to="Ju_Vesterbro_Ostre_KongCh_hobro_NO" speed="16.6" numLanes="2" />
    <edge from="Ju_Vesterbro_Ostre_KongCh_hobro_NV" id="4_3_1" to="Ju_Vesterbro_Ostre_KongCh_hobro_SV" speed="16.6" numLanes="2" />
    <edge from="Ju_Vesterbro_Ostre_KongCh_hobro_NO" id="4_4_1" to="Ju_Vesterbro_Ostre_KongCh_hobro_NV" speed="16.6" numLanes="2" />

	<!-- End Junction Vesterbro osterbro hobro kongch -->


	<!-- begin Junction hobro sonderskov -->
	<!-- Inner Junction Connection-->
  	<edge from="Ju_Hobrovej_sonderSkov_V" id="4_1_1" to="Ju_Hobrovej_sonderSkov_O" speed="16.6" numLanes="2" />
  	<edge from="Ju_Hobrovej_sonderSkov_O" id="4_1_2" to="Ju_Hobrovej_sonderSkov_V" speed="16.6" numLanes="2" />
   	<edge from="Ju_Hobrovej_sonderSkov_OS" id="4_1_3" to="Ju_Hobrovej_sonderSkov_O" speed="16.6" numLanes="2" />
  	<edge from="Ju_Hobrovej_sonderSkov_V" id="4_1_4" to="Ju_Hobrovej_sonderSkov_VS" speed="16.6" numLanes="2" />
    
	<!-- Hobrovej_2 id 5-->
    <edge from="Hobrovej_S_1" id="5_S" to="Ju_Hobrovej_sonderSkov_V" speed="16.6" numLanes="2" >
		<split pos="0" lanes="1 2"/>		
		<split pos="-30" lanes="0 1 2"/>
	</edge>
    <edge from="Ju_Hobrovej_sonderSkov_O" id="5_N" to="Hobrovej_N_1" speed="16.6" numLanes="2" spreadType="center">
		<split pos="0" lanes="1 2"/>
	</edge>

	<!-- sonderSkov id 6-->
    <edge from="sonderSkov_V" id="6_O" to="Ju_Hobrovej_sonderSkov_V" speed="16.6" numLanes="1">
	<split pos="-30" lanes="0 1"/>
	</edge>

    <edge from="Ju_Hobrovej_sonderSkov_V" id="6_V" to="sonderSkov_V" speed="16.6" numLanes="1"/>
	
	<!-- begin Junction hobro RornersVej N -->
	<!-- Inner Junction Connection-->
	<edge from="Ju_Hobrovej_RornersVej_NO" id="9_O" to="RornersVej_O_N" speed="16.6" numLanes="1"/>
	

	<!-- Hobrovej_3 id 7-->
    <edge from="Ju_Hobrovej_RornersVej_NO" id="7_N" to="Ju_Hobrovej_sonderSkov_OS" speed="16.6" numLanes="3"  >
		<split pos="0" lanes="0 1"/>
		<split pos="-60" lanes="0 1 2"/>
	</edge>
	

	<!-- begin Junction hobro RornersVej S -->
	<!-- Inner Junction Connection-->
	<edge from="Ju_Hobrovej_RornersVej_SV" id="7_1" to="Ju_Hobrovej_RornersVej_SO" speed="16.6" numLanes="1"  />
	<edge from="Ju_Hobrovej_RornersVej_SV" id="7_2" to="Ju_Hobrovej_RornersVej_SSV" speed="16.6" numLanes="2" />
	<edge from="Ju_Hobrovej_RornersVej_SSO" id="7_3" to="Ju_Hobrovej_RornersVej_SO" speed="16.6" numLanes="2" />

    <edge from="Ju_Hobrovej_sonderSkov_VS" id="7_S" to="Ju_Hobrovej_RornersVej_SV" speed="16.6" numLanes="3" >
		<split pos="0" lanes="0 1"/>		
		<split pos="-25" lanes="0 1 2"/>
	</edge>
	<!-- End Junction hobro sonderskov -->

    <edge from="Ju_Hobrovej_RornersVej_SO" id="8_N" to="Ju_Hobrovej_RornersVej_NO" speed="16.6" numLanes="3">
		<split pos="0" lanes="0 1"/>		
	</edge>
	<!-- End Junction hobro RornersVej N -->

    <edge from="Ju_Hobrovej_RornersVej_SO" id="10_O" to="RornersVej_O_S" speed="16.6" numLanes="1"/>

	<!-- Begin Junction Hobrovej_MollerPark -->
	<!-- Inner Junction Connection-->
	<edge from="Ju_Hobrovej_MollerPark" id="12_1" to="Ju_Hobrovej_MollerPark_NO" speed="16.6" numLanes="1"  />

	<edge from="Ju_Hobrovej_RornersVej_SSV" id="11_S" to="Ju_Hobrovej_MollerPark" speed="16.6" numLanes="2">
		<split pos="-50" lanes="0 1 2"/>	
	</edge>
    <edge from="Ju_Hobrovej_MollerPark_NO" id="11_N" to="Ju_Hobrovej_RornersVej_SSO" speed="16.6" numLanes="2"/>

	
	<!-- End Junction hobro RornersVej -->
	<edge from="MollerPark_V" id="12_O" to="Ju_Hobrovej_MollerPark" speed="16.6" numLanes="1"/>
    <edge from="Ju_Hobrovej_MollerPark" id="12_V" to="MollerPark_V" speed="16.6" numLanes="1"/>
	
	<!-- Begin Junction Hobrovej_LilleHobro -->
	<edge from="Ju_Hobrovej_LilleHobro" id="13_N" to="Ju_Hobrovej_MollerPark" speed="16.6" numLanes="3">
		<split pos="0" lanes="0 1"/>
		<split pos="-40" lanes="0 1 2"/>	
	</edge>
    <edge from="Ju_Hobrovej_MollerPark" id="13_S" to="Ju_Hobrovej_LilleHobro" speed="16.6" numLanes="2"/>
	<!-- End Junction Hobrovej_MollerPark -->

	<edge from="Ju_Hobrovej_LilleHobro" id="14_O" to="LilleHobro_V" speed="16.6" numLanes="1"/>
    <edge from="LilleHobro_V" id="14_V" to="Ju_Hobrovej_LilleHobro" speed="16.6" numLanes="1"/>

	<!-- Begin Junction Hobrovej_ParkVej -->
	<!-- Inner Junction Connection-->
	<edge from="Ju_Hobrovej_ParkVej" id="12_1" to="Ju_Hobrovej_ParkVej_S" speed="16.6" numLanes="1"  />

	<edge from="Ju_Hobrovej_LilleHobro" id="15_N" to="Ju_Hobrovej_ParkVej" speed="16.6" numLanes="2"/>
    <edge from="Ju_Hobrovej_ParkVej_V" id="15_S" to="Ju_Hobrovej_LilleHobro" speed="16.6" numLanes="3">
		<split pos="0" lanes="0 1"/>
		<split pos="-30" lanes="0 1 2"/>	


	</edge>	
<!-- End Junction Hobrovej_LilleHobro -->


	<edge from="ParkVej_V" id="16_O" to="Ju_Hobrovej_ParkVej" speed="16.6" numLanes="1"/>
    <edge from="Ju_Hobrovej_ParkVej" id="16_V" to="ParkVej_V" speed="16.6" numLanes="1"/>


	<!-- Begin Ju_hobrovej_VestreAlle_NyKervej -->

	<edge from="Ju_hobrovej_VestreAlle_NyKervej" id="17_N" to="Ju_Hobrovej_ParkVej_V" speed="16.6" numLanes="3">
		<split pos="0" lanes="0 1"/>
	</edge>
    <edge from="Ju_Hobrovej_ParkVej_S" id="17_S" to="Ju_hobrovej_VestreAlle_NyKervej" speed="16.6" numLanes="3">
		<split pos="0" lanes="1 2"/>
		<split pos="-60" lanes="0 1 2 3"/>
	</edge>

	<!-- End Junction Hobrovej_ParkVej -->

	<!-- Inner Junction Connection-->

	<!-- End Junction Hobrovej_ParkVej -->
	

	<edge from="Ju_hobrovej_VestreAlle_NyKervej" id="18_S" to="hobrovej_S" speed="16.6" numLanes="2"/>
    <edge from="hobrovej_S" id="18_N" to="Ju_hobrovej_VestreAlle_NyKervej" speed="16.6" numLanes="4">
	<split pos="0" lanes="1 2"/>
		<split pos="-60" lanes="0 1 2 3"/>
	</edge>

	<edge from="Ju_hobrovej_VestreAlle_NyKervej" id="19_V" to="VestreAlle_NV" speed="16.6" numLanes="1"/>
    <edge from="VestreAlle_NV" id="19_O" to="Ju_hobrovej_VestreAlle_NyKervej" speed="16.6" numLanes="3">
	<split pos="0" lanes="1"/>
		<split pos="-60" lanes="0 1 2"/>
	</edge>

	<edge from="Ju_hobrovej_VestreAlle_NyKervej" id="20_O" to="NyKervej_O_1" speed="16.6" numLanes="1"/>
    <edge from="NyKervej_O_1" id="20_V" to="Ju_hobrovej_VestreAlle_NyKervej" speed="16.6" numLanes="3"/>

	<!-- End Ju_hobrovej_VestreAlle_NyKervej -->

	<edge from="NyKervej_O_2" id="21_V" to="NyKervej_O_1" speed="16.6" numLanes="1"/>
    <edge from="NyKervej_O_1" id="21_O" to="NyKervej_O_2" speed="16.6" numLanes="1"/>

</edges>
