<connections>
	<!-- begin Junction Vesterbro osterbro hobro kongch -->
	<!-- from kongch -->
	<connection from="2_O.-60" to="4_S"  fromLane="0" toLane="0"/>
	<connection from="2_O.-60" to="3_O"  fromLane="1" toLane="0"/>
	<connection from="2_O.-60" to="3_O"  fromLane="2" toLane="1"/>
	<connection from="2_O.-60" to="1_N"  fromLane="3" toLane="0"/>
	<!-- from vesterbro -->
	<connection from="1_S.-60" to="2_V"  fromLane="0" toLane="0"/>
	<connection from="1_S.-60" to="4_S"  fromLane="1" toLane="0"/>
	<connection from="1_S.-60" to="4_S"  fromLane="2" toLane="1"/>
	<connection from="1_S.-60" to="3_O"  fromLane="3" toLane="0"/>
	<!-- from osterbro -->
	<connection from="3_V.-60" to="1_N"  fromLane="0" toLane="0"/>
	<connection from="3_V.-60" to="2_V"  fromLane="1" toLane="0"/>
	<connection from="3_V.-60" to="2_V"  fromLane="2" toLane="1"/>
	<connection from="3_V.-60" to="4_S"  fromLane="3" toLane="0"/>
	<!-- from hobro -->
	<connection from="4_N.-60" to="3_O"  fromLane="0" toLane="0"/>
	<connection from="4_N.-60" to="1_N"  fromLane="1" toLane="0"/>
	<connection from="4_N.-60" to="1_N"  fromLane="2" toLane="1"/>
	<connection from="4_N.-60" to="2_V"  fromLane="3" toLane="0"/>
	<!-- End Junction Vesterbro osterbro hobro kongch -->

	<!-- begin Connection Hobro_1 to hobro_2 -->
	<connection from="5_N" to="4_N"  fromLane="0" toLane="0"/>
	<connection from="5_N" to="4_N"  fromLane="1" toLane="1"/>

	<connection from="4_S" to="5_S"  fromLane="0" toLane="0"/>
	<connection from="4_S" to="5_S"  fromLane="1" toLane="1"/>
	<!-- End Connection Hobro_1 to hobro_2 -->

</connections>
