<connections>
	<!-- begin Junction Vesterbro osterbro hobro kongch -->
	<connection from="2_O.-60" to="4_S"  fromLane="0" toLane="0"/>
	<connection from="2_O.-60" to="3_O"  fromLane="1" toLane="0"/>
	<connection from="2_O.-60" to="3_O"  fromLane="2" toLane="1"/>
	<connection from="2_O.-60" to="1_N"  fromLane="3" toLane="0"/>
	<!-- End Junction Vesterbro osterbro hobro kongch -->
</connections>
