<?xml version="1.0" encoding="UTF-8"?>

<!-- generated on Tue Sep 25 13:30:08 2012 by SUMO netconvert Version 0.15.0
<?xml version="1.0" encoding="UTF-8"?>

<configuration xmlns:xsi="http://www.w3.org/2001/XMLSchema-instance" xsi:noNamespaceSchemaLocation="http://sumo.sf.net/xsd/netconvertConfiguration.xsd">

    <input>
        <sumo-net-file value="Data.net.xml"/>
    </input>

    <output>
        <plain-output-prefix value="test"/>
    </output>

    <processing>
        <no-turnarounds value="true"/>
        <offset.disable-normalization value="true"/>
    </processing>

</configuration>
-->

<tlLogics version="0.13" xmlns:xsi="http://www.w3.org/2001/XMLSchema-instance" xsi:noNamespaceSchemaLocation="http://sumo.sf.net/xsd/tllogic_file.xsd">
    <tlLogic id="cluster_Ju_Vesterbro_Ostre_KongCh_hobro_NO_Ju_Vesterbro_Ostre_KongCh_hobro_NV_Ju_Vesterbro_Ostre_KongCh_hobro_SO_Ju_Vesterbro_Ostre_KongCh_hobro_SV" type="static" programID="0" offset="0">
        <phase duration="31" state="GGGggrrrrrrGGGggrrrrrr"/>
        <phase duration="5" state="yyyggrrrrrryyyggrrrrrr"/>
        <phase duration="6" state="rrrGGrrrrrrrrrGGrrrrrr"/>
        <phase duration="5" state="rrryyrrrrrrrrryyrrrrrr"/>
        <phase duration="31" state="rrrrrGGGgggrrrrrGGGggg"/>
        <phase duration="5" state="rrrrryyygggrrrrryyyggg"/>
        <phase duration="6" state="rrrrrrrrGGGrrrrrrrrGGG"/>
        <phase duration="5" state="rrrrrrrryyyrrrrrrrryyy"/>
    </tlLogic>

    <connection from="1_S.-60" to="2_V" fromLane="0" toLane="0" tl="cluster_Ju_Vesterbro_Ostre_KongCh_hobro_NO_Ju_Vesterbro_Ostre_KongCh_hobro_NV_Ju_Vesterbro_Ostre_KongCh_hobro_SO_Ju_Vesterbro_Ostre_KongCh_hobro_SV" linkIndex="0"/> 
    <connection from="1_S.-60" to="4_S" fromLane="0" toLane="0" tl="cluster_Ju_Vesterbro_Ostre_KongCh_hobro_NO_Ju_Vesterbro_Ostre_KongCh_hobro_NV_Ju_Vesterbro_Ostre_KongCh_hobro_SO_Ju_Vesterbro_Ostre_KongCh_hobro_SV" linkIndex="1"/>
    <connection from="1_S.-60" to="4_S" fromLane="1" toLane="1" tl="cluster_Ju_Vesterbro_Ostre_KongCh_hobro_NO_Ju_Vesterbro_Ostre_KongCh_hobro_NV_Ju_Vesterbro_Ostre_KongCh_hobro_SO_Ju_Vesterbro_Ostre_KongCh_hobro_SV" linkIndex="2"/>
    <connection from="1_S.-60" to="3_O" fromLane="2" toLane="1" tl="cluster_Ju_Vesterbro_Ostre_KongCh_hobro_NO_Ju_Vesterbro_Ostre_KongCh_hobro_NV_Ju_Vesterbro_Ostre_KongCh_hobro_SO_Ju_Vesterbro_Ostre_KongCh_hobro_SV" linkIndex="3"/>
    <connection from="1_S.-60" to="1_N" fromLane="3" toLane="1" tl="cluster_Ju_Vesterbro_Ostre_KongCh_hobro_NO_Ju_Vesterbro_Ostre_KongCh_hobro_NV_Ju_Vesterbro_Ostre_KongCh_hobro_SO_Ju_Vesterbro_Ostre_KongCh_hobro_SV" linkIndex="4"/>
    <connection from="2_O.-60" to="4_S" fromLane="0" toLane="0" tl="cluster_Ju_Vesterbro_Ostre_KongCh_hobro_NO_Ju_Vesterbro_Ostre_KongCh_hobro_NV_Ju_Vesterbro_Ostre_KongCh_hobro_SO_Ju_Vesterbro_Ostre_KongCh_hobro_SV" linkIndex="16"/>
    <connection from="2_O.-60" to="4_S" fromLane="1" toLane="1" tl="cluster_Ju_Vesterbro_Ostre_KongCh_hobro_NO_Ju_Vesterbro_Ostre_KongCh_hobro_NV_Ju_Vesterbro_Ostre_KongCh_hobro_SO_Ju_Vesterbro_Ostre_KongCh_hobro_SV" linkIndex="17"/>
    <connection from="2_O.-60" to="3_O" fromLane="2" toLane="1" tl="cluster_Ju_Vesterbro_Ostre_KongCh_hobro_NO_Ju_Vesterbro_Ostre_KongCh_hobro_NV_Ju_Vesterbro_Ostre_KongCh_hobro_SO_Ju_Vesterbro_Ostre_KongCh_hobro_SV" linkIndex="18"/>
    <connection from="2_O.-60" to="1_N" fromLane="2" toLane="0" tl="cluster_Ju_Vesterbro_Ostre_KongCh_hobro_NO_Ju_Vesterbro_Ostre_KongCh_hobro_NV_Ju_Vesterbro_Ostre_KongCh_hobro_SO_Ju_Vesterbro_Ostre_KongCh_hobro_SV" linkIndex="19"/>
    <connection from="2_O.-60" to="1_N" fromLane="3" toLane="1" tl="cluster_Ju_Vesterbro_Ostre_KongCh_hobro_NO_Ju_Vesterbro_Ostre_KongCh_hobro_NV_Ju_Vesterbro_Ostre_KongCh_hobro_SO_Ju_Vesterbro_Ostre_KongCh_hobro_SV" linkIndex="20"/>
    <connection from="2_O.-60" to="2_V" fromLane="3" toLane="1" tl="cluster_Ju_Vesterbro_Ostre_KongCh_hobro_NO_Ju_Vesterbro_Ostre_KongCh_hobro_NV_Ju_Vesterbro_Ostre_KongCh_hobro_SO_Ju_Vesterbro_Ostre_KongCh_hobro_SV" linkIndex="21"/>
    <connection from="3_V.-60" to="1_N" fromLane="0" toLane="0" tl="cluster_Ju_Vesterbro_Ostre_KongCh_hobro_NO_Ju_Vesterbro_Ostre_KongCh_hobro_NV_Ju_Vesterbro_Ostre_KongCh_hobro_SO_Ju_Vesterbro_Ostre_KongCh_hobro_SV" linkIndex="5"/>
    <connection from="3_V.-60" to="1_N" fromLane="1" toLane="1" tl="cluster_Ju_Vesterbro_Ostre_KongCh_hobro_NO_Ju_Vesterbro_Ostre_KongCh_hobro_NV_Ju_Vesterbro_Ostre_KongCh_hobro_SO_Ju_Vesterbro_Ostre_KongCh_hobro_SV" linkIndex="6"/>
    <connection from="3_V.-60" to="2_V" fromLane="2" toLane="1" tl="cluster_Ju_Vesterbro_Ostre_KongCh_hobro_NO_Ju_Vesterbro_Ostre_KongCh_hobro_NV_Ju_Vesterbro_Ostre_KongCh_hobro_SO_Ju_Vesterbro_Ostre_KongCh_hobro_SV" linkIndex="7"/>
    <connection from="3_V.-60" to="4_S" fromLane="2" toLane="0" tl="cluster_Ju_Vesterbro_Ostre_KongCh_hobro_NO_Ju_Vesterbro_Ostre_KongCh_hobro_NV_Ju_Vesterbro_Ostre_KongCh_hobro_SO_Ju_Vesterbro_Ostre_KongCh_hobro_SV" linkIndex="8"/>
    <connection from="3_V.-60" to="4_S" fromLane="3" toLane="1" tl="cluster_Ju_Vesterbro_Ostre_KongCh_hobro_NO_Ju_Vesterbro_Ostre_KongCh_hobro_NV_Ju_Vesterbro_Ostre_KongCh_hobro_SO_Ju_Vesterbro_Ostre_KongCh_hobro_SV" linkIndex="9"/>
    <connection from="3_V.-60" to="3_O" fromLane="3" toLane="1" tl="cluster_Ju_Vesterbro_Ostre_KongCh_hobro_NO_Ju_Vesterbro_Ostre_KongCh_hobro_NV_Ju_Vesterbro_Ostre_KongCh_hobro_SO_Ju_Vesterbro_Ostre_KongCh_hobro_SV" linkIndex="10"/>
    <connection from="4_N.-60" to="3_O" fromLane="0" toLane="0" tl="cluster_Ju_Vesterbro_Ostre_KongCh_hobro_NO_Ju_Vesterbro_Ostre_KongCh_hobro_NV_Ju_Vesterbro_Ostre_KongCh_hobro_SO_Ju_Vesterbro_Ostre_KongCh_hobro_SV" linkIndex="11"/>
    <connection from="4_N.-60" to="1_N" fromLane="0" toLane="0" tl="cluster_Ju_Vesterbro_Ostre_KongCh_hobro_NO_Ju_Vesterbro_Ostre_KongCh_hobro_NV_Ju_Vesterbro_Ostre_KongCh_hobro_SO_Ju_Vesterbro_Ostre_KongCh_hobro_SV" linkIndex="12"/>
    <connection from="4_N.-60" to="1_N" fromLane="1" toLane="1" tl="cluster_Ju_Vesterbro_Ostre_KongCh_hobro_NO_Ju_Vesterbro_Ostre_KongCh_hobro_NV_Ju_Vesterbro_Ostre_KongCh_hobro_SO_Ju_Vesterbro_Ostre_KongCh_hobro_SV" linkIndex="13"/>
    <connection from="4_N.-60" to="2_V" fromLane="2" toLane="1" tl="cluster_Ju_Vesterbro_Ostre_KongCh_hobro_NO_Ju_Vesterbro_Ostre_KongCh_hobro_NV_Ju_Vesterbro_Ostre_KongCh_hobro_SO_Ju_Vesterbro_Ostre_KongCh_hobro_SV" linkIndex="14"/>
    <connection from="4_N.-60" to="4_S" fromLane="3" toLane="1" tl="cluster_Ju_Vesterbro_Ostre_KongCh_hobro_NO_Ju_Vesterbro_Ostre_KongCh_hobro_NV_Ju_Vesterbro_Ostre_KongCh_hobro_SO_Ju_Vesterbro_Ostre_KongCh_hobro_SV" linkIndex="15"/>
</tlLogics>
