<?xml version="1.0" encoding="UTF-8"?>

<!-- generated on Tue Sep 25 13:30:08 2012 by SUMO netconvert Version 0.15.0
<?xml version="1.0" encoding="UTF-8"?>

<configuration xmlns:xsi="http://www.w3.org/2001/XMLSchema-instance" xsi:noNamespaceSchemaLocation="http://sumo.sf.net/xsd/netconvertConfiguration.xsd">

    <input>
        <sumo-net-file value="Data.net.xml"/>
    </input>

    <output>
        <plain-output-prefix value="test"/>
    </output>

    <processing>
        <no-turnarounds value="true"/>
        <offset.disable-normalization value="true"/>
    </processing>

</configuration>
-->

<nodes version="0.13" xmlns:xsi="http://www.w3.org/2001/XMLSchema-instance" xsi:noNamespaceSchemaLocation="http://sumo.sf.net/xsd/nodes_file.xsd">
    <location netOffset="-555023.98,-6321195.80" convBoundary="0.00,0.00,382.34,1251.87" origBoundary="9.906637,57.030935,9.913061,57.042159" projParameter="+proj=utm +zone=32 +ellps=WGS84 +datum=WGS84 +units=m +no_defs"/>

    <node id="1_S.-60" x="238.02" y="1196.56" type="priority"/>
    <node id="2_O.-60" x="176.92" y="1155.34" type="priority"/>
    <node id="3_V.-60" x="298.55" y="1110.49" type="priority"/>
    <node id="4_N.-60" x="234.40" y="1057.75" type="priority"/>
    <node id="Hobrovej_N_1" x="224.96" y="968.93" type="priority"/>
    <node id="Hobrovej_S_1" x="217.45" y="968.37" type="priority"/>
    <node id="Ju_Hobrovej_LilleHobro" x="148.75" y="500.60" type="priority"/>
    <node id="Ju_Hobrovej_MollerPark" x="160.45" y="563.30" type="priority"/>
    <node id="Ju_Hobrovej_ParkVej" x="138.25" y="404.86" type="priority"/>
    <node id="Ju_Hobrovej_RornersVej_N" x="193.01" y="792.84" type="priority"/>
    <node id="Ju_Hobrovej_RornersVej_S" x="190.69" y="769.12" type="priority"/>
    <node id="Ju_Hobrovej_sonderSkov" x="204.14" y="857.43" type="priority"/>
    <node id="Ju_hobrovej_VestreAlle_NyKervej" x="119.29" y="284.91" type="priority"/>
    <node id="KongCh_V" x="70.71" y="1219.34" type="priority"/>
    <node id="LilleHobro_V" x="40.33" y="517.59" type="priority"/>
    <node id="MollerPark_V" x="10.35" y="589.62" type="priority"/>
    <node id="NyKervej_O_1" x="160.42" y="268.33" type="priority"/>
    <node id="NyKervej_O_2" x="332.23" y="246.92" type="priority"/>
    <node id="Ostre_O" x="381.16" y="1078.81" type="priority"/>
    <node id="ParkVej_V" x="0.00" y="424.88" type="priority"/>
    <node id="RornersVej_O_N" x="347.08" y="765.27" type="unregulated"/>
    <node id="RornersVej_O_S" x="344.06" y="744.82" type="unregulated"/>
    <node id="Vesterbro_N_N" x="253.70" y="1251.87" type="unregulated"/>
    <node id="Vesterbro_N_S" x="243.87" y="1245.37" type="unregulated"/>
    <node id="VestreAlle_NV" x="0.78" y="366.29" type="priority"/>
    <node id="cluster_Ju_Vesterbro_Ostre_KongCh_hobro_NO_Ju_Vesterbro_Ostre_KongCh_hobro_NV_Ju_Vesterbro_Ostre_KongCh_hobro_SO_Ju_Vesterbro_Ostre_KongCh_hobro_SV" x="235.62" y="1127.69" type="traffic_light" tl="cluster_Ju_Vesterbro_Ostre_KongCh_hobro_NO_Ju_Vesterbro_Ostre_KongCh_hobro_NV_Ju_Vesterbro_Ostre_KongCh_hobro_SO_Ju_Vesterbro_Ostre_KongCh_hobro_SV"/>
    <node id="hobrovej_S" x="84.81" y="0.00" type="priority"/>
    <node id="sonderSkov_V" x="154.74" y="866.61" type="priority"/>
</nodes>
