<edges>
    <edge from="Main1" id="Main1toJu1" to="Ju1" numLanes="2" >
		<split pos="-30" lanes="0 1 2"/>
	</edge>
	<edge from="Ju1" id="Ju1toMain1" to="Main1" numLanes="2"/>

	<edge from="N1" id="N1toJu1" to="Ju1"/>
    <edge from="Ju1" id="Ju1toN1" to="N1" />
    
	<edge from="S1" id="S1toJu1" to="Ju1" />
    <edge from="Ju1" id="Ju1toS1" to="S1" />	

    <edge from="Ju1" id="Ju1toJu2" to="Ju2" numLanes="2" >
		<split pos="-30" lanes="0 1 2"/>
	</edge>

	<edge from="Ju2" id="Ju2toJu1" to="Ju1" numLanes="2" >
		<split pos="0" lanes="0 1"/>
		<split pos="-30" lanes="0 1 2"/>
	</edge>

	<edge from="N2" id="N2toJu2" to="Ju2"/>
    <edge from="Ju2" id="Ju2toN2" to="N2" />
    
	<edge from="S2" id="S2toJu2" to="Ju2" />
    <edge from="Ju2" id="Ju2toS2" to="S2" />	


	<edge from="Ju2" id="Ju2toJu3" to="Ju3" numLanes="2"/>
	<edge from="Ju3" id="Ju3toJu2" to="Ju2" numLanes="2"/>
	<edge from="Ju3" id="Ju3toOst1" to="Ost1" />
</edges>
