<?xml version="1.0"?>

<!-- generated on Tue Sep 11 14:45:27 2012 by SUMO duarouter Version 0.15.0
<?xml version="1.0" encoding="UTF-8"?>

<configuration xmlns:xsi="http://www.w3.org/2001/XMLSchema-instance" xsi:noNamespaceSchemaLocation="http://sumo.sf.net/xsd/duarouterConfiguration.xsd">

    <input>
        <net-file value="Simple.net.xml"/>
        <trip-files value="trips.xml"/>
    </input>

    <output>
        <output-file value="Simple.rou.xml"/>
    </output>

</configuration>
-->

<routes xmlns:xsi="http://www.w3.org/2001/XMLSchema-instance" xsi:noNamespaceSchemaLocation="http://sumo.sf.net/xsd/routes_file.xsd">
    <vehicle id="0" depart="0.00">
        <route edges="Main1toJu1 Main1toJu1.-30 Ju1toJu2 Ju1toJu2.-30 Ju2toJu3 Ju3toOst1"/>
    </vehicle>
    <vehicle id="1" depart="10.00">
        <route edges="Main1toJu1 Main1toJu1.-30 Ju1toJu2 Ju1toJu2.-30 Ju2toJu3 Ju3toOst1"/>
    </vehicle>
    <vehicle id="2" depart="20.00">
        <route edges="Main1toJu1 Main1toJu1.-30 Ju1toJu2 Ju1toJu2.-30 Ju2toJu3 Ju3toOst1"/>
    </vehicle>
</routes>
